************************************************************************
* auCdl Netlist:
* 
* Library Name:  FINAL_PROJECT
* Top Cell Name: FINAL_TEST4
* View Name:     schematic
* Netlisted on:  Jan 16 14:50:33 2023
************************************************************************

*.BIPOLAR
*.RESI = 2000 
*.RESVAL
*.CAPVAL
*.DIOPERI
*.DIOAREA
*.EQUATION
*.SCALE METER
*.MEGA
.PARAM



************************************************************************
* Library Name: FINAL_PROJECT
* Cell Name:    inv4
* View Name:    schematic
************************************************************************

.SUBCKT inv4 VDD VIN VOUT VSS
*.PININFO VIN:I VOUT:O VDD:B VSS:B
MM1 VOUT VIN VSS VSS N_18 W=500.0n L=1.65u m=1
MM0 VOUT VIN VDD VDD P_18 W=1.85u L=900.0n m=1
.ENDS

************************************************************************
* Library Name: FINAL_PROJECT
* Cell Name:    BUFFER3_FINAL
* View Name:    schematic
************************************************************************

.SUBCKT BUFFER3_FINAL VDD VIN VOUT VSS
*.PININFO VIN:I VOUT:O VDD:B VSS:B
XI1 VDD net10 VOUT VSS / inv4
XI0 VDD VIN net10 VSS / inv4
.ENDS

************************************************************************
* Library Name: FINAL_PROJECT
* Cell Name:    inv2
* View Name:    schematic
************************************************************************

.SUBCKT inv2 VDD VIN VOUT VSS
*.PININFO VIN:I VOUT:O VDD:B VSS:B
MM1 VOUT VIN VSS VSS N_18 W=500.0n L=180.00n m=2
MM0 VOUT VIN VDD VDD P_18 W=1.85u L=180.00n m=2
.ENDS

************************************************************************
* Library Name: FINAL_PROJECT
* Cell Name:    BUFFER2_FINAL
* View Name:    schematic
************************************************************************

.SUBCKT BUFFER2_FINAL VDD VIN VOUT VSS
*.PININFO VIN:I VOUT:O VDD:B VSS:B
XI1 VDD net10 VOUT VSS / inv2
XI0 VDD VIN net10 VSS / inv2
.ENDS

************************************************************************
* Library Name: FINAL_PROJECT
* Cell Name:    inv1
* View Name:    schematic
************************************************************************

.SUBCKT inv1 VDD VIN VOUT VSS
*.PININFO VIN:I VOUT:O VDD:B VSS:B
MM1 VOUT VIN VSS VSS N_18 W=500.0n L=180.00n m=1
MM0 VOUT VIN VDD VDD P_18 W=1.85u L=180.00n m=1
.ENDS

************************************************************************
* Library Name: FINAL_PROJECT
* Cell Name:    BUFFER1_FINAL
* View Name:    schematic
************************************************************************

.SUBCKT BUFFER1_FINAL VDD VIN VOUT VSS
*.PININFO VIN:I VOUT:O VDD:B VSS:B
XI1 VDD net8 VOUT VSS / inv1
XI0 VDD VIN net8 VSS / inv1
.ENDS

************************************************************************
* Library Name: FINAL_PROJECT
* Cell Name:    TIMING_CONTROL_TEST4
* View Name:    schematic
************************************************************************

.SUBCKT TIMING_CONTROL_TEST4 CLK PRE_B SA_EN0 VDD VSS WL_EN1
*.PININFO CLK:I PRE_B:O SA_EN0:O WL_EN1:O VDD:B VSS:B
XI181 VDD net068 net033 VSS / BUFFER3_FINAL
XI179 VDD PRE_B net068 VSS / BUFFER3_FINAL
XI164 VDD CLK WL_EN1 VSS / BUFFER2_FINAL
XI182 VDD net033 net049 VSS / BUFFER1_FINAL
XI149 VDD net039 net081 VSS / BUFFER1_FINAL
XI99 VDD net30 net039 VSS / BUFFER1_FINAL
XI101 VDD net081 PRE_B VSS / BUFFER1_FINAL
XI183 VDD net049 SA_EN0 VSS / BUFFER1_FINAL
XI162 VDD WL_EN1 net086 VSS / BUFFER1_FINAL
XI86 VDD net086 net30 VSS / BUFFER1_FINAL
.ENDS

************************************************************************
* Library Name: VLSI
* Cell Name:    sa
* View Name:    schematic
************************************************************************

.SUBCKT sa EN INN INP SO SON VDD VSS
*.PININFO EN:I INN:I INP:I SO:O SON:O VDD:B VSS:B
MM8 net9 EN vss vss N_18 W=470.00n L=180.00n
MM7 net1 INP net9 VSS N_18 W=1.2u L=180.00n
MM6 net20 INN net9 VSS N_18 W=1.2u L=180.00n
MM5 SON SO net1 VSS N_18 W=1.2u L=180.00n
MM4 SO SON net20 VSS N_18 W=1.2u L=180.00n
MM3 SON EN VDD VDD P_18 W=470.00n L=180.00n
MM2 SON SO VDD VDD P_18 W=470.00n L=180.00n
MM1 SO SON VDD VDD P_18 W=470.00n L=180.00n
MM0 SO EN VDD VDD P_18 W=470.00n L=180.00n
.ENDS

************************************************************************
* Library Name: FINAL_PROJECT
* Cell Name:    SA_V1
* View Name:    schematic
************************************************************************

.SUBCKT SA_V1 DL<0> DL<1> DOUT_IN<0> DOUT_IN<1> SAEN VDD VREF VSS
*.PININFO DL<0>:I DL<1>:I SAEN:I VREF:I DOUT_IN<0>:O DOUT_IN<1>:O VDD:B VSS:B
XI1 SAEN VREF DL<1> DOUT_IN<1> net12 VDD VSS / sa
XI0 SAEN VREF DL<0> DOUT_IN<0> net19 VDD VSS / sa
.ENDS

************************************************************************
* Library Name: D_LATCH
* Cell Name:    NOR2_048_070
* View Name:    schematic
************************************************************************

.SUBCKT NOR2_048_070 IN0 IN1 OUT VDD VSS
*.PININFO IN0:I IN1:I OUT:O VDD:B VSS:B
MM6 net21 IN0 VDD VDD P_18 W=470.00n L=180.00n m=1
MM7 OUT IN1 net21 VDD P_18 W=470.00n L=180.00n m=1
MM4 OUT IN1 VSS VSS N_18 W=470.00n L=180.00n m=1
MM5 OUT IN0 VSS VSS N_18 W=470.00n L=180.00n m=1
.ENDS

************************************************************************
* Library Name: D_LATCH
* Cell Name:    NAND2_048
* View Name:    schematic
************************************************************************

.SUBCKT NAND2_048 IN0 IN1 OUT VDD VSS
*.PININFO IN0:I IN1:I OUT:O VDD:B VSS:B
MM3 net13 IN1 VSS VSS N_18 W=470.00n L=180.00n m=1
MM2 OUT IN0 net13 VSS N_18 W=470.00n L=180.00n m=1
MM1 OUT IN1 VDD VDD P_18 W=470.00n L=180.00n m=1
MM0 OUT IN0 VDD VDD P_18 W=470.00n L=180.00n m=1
.ENDS

************************************************************************
* Library Name: D_LATCH
* Cell Name:    inv
* View Name:    schematic
************************************************************************

.SUBCKT inv VDD VIN VOUT VSS
*.PININFO VIN:I VOUT:O VDD:B VSS:B
MM1 VOUT VIN VSS VSS N_18 W=500.0n L=180.00n m=1
MM0 VOUT VIN VDD VDD P_18 W=1.85u L=180.00n m=1
.ENDS

************************************************************************
* Library Name: D_LATCH
* Cell Name:    AND2_048
* View Name:    schematic
************************************************************************

.SUBCKT AND2_048 IN0 IN1 OUT VDD VSS
*.PININFO IN0:I IN1:I OUT:O VDD:B VSS:B
XI3 IN0 IN1 net12 VDD VSS / NAND2_048
XI2 VDD net12 OUT VSS / inv
.ENDS

************************************************************************
* Library Name: D_LATCH
* Cell Name:    clocked_D_LATCH
* View Name:    schematic
************************************************************************

.SUBCKT clocked_D_LATCH CLK D Q QB VDD VSS
*.PININFO CLK:I D:I Q:O QB:O VDD:B VSS:B
XI10 net9 QB Q VDD VSS / NOR2_048_070
XI9 Q net10 QB VDD VSS / NOR2_048_070
XI8 CLK net2 net9 VDD VSS / AND2_048
XI7 CLK D net10 VDD VSS / AND2_048
XI6 VDD D net2 VSS / inv
.ENDS

************************************************************************
* Library Name: FINAL_PROJECT
* Cell Name:    D_LATCHX2
* View Name:    schematic
************************************************************************

.SUBCKT D_LATCHX2 DOUT<0> DOUT<1> DOUT_IN<0> DOUT_IN<1> SAEN VDD VSS
*.PININFO DOUT_IN<0>:I DOUT_IN<1>:I SAEN:I DOUT<0>:O DOUT<1>:O VDD:B VSS:B
XI1 SAEN DOUT_IN<1> DOUT<1> net16 VDD VSS / clocked_D_LATCH
XI0 SAEN DOUT_IN<0> DOUT<0> net10 VDD VSS / clocked_D_LATCH
.ENDS

************************************************************************
* Library Name: FINAL_PROJECT
* Cell Name:    inv_schematic
* View Name:    schematic
************************************************************************

.SUBCKT inv_schematic VDD VIN VOUT VSS
*.PININFO VIN:I VOUT:O VDD:B VSS:B
MM1 VOUT VIN VSS VSS N_18 W=500.0n L=180.00n m=1
MM0 VOUT VIN VDD VDD P_18 W=1.85u L=180.00n m=1
.ENDS

************************************************************************
* Library Name: FINAL_PROJECT
* Cell Name:    NAND2_FINAL
* View Name:    schematic
************************************************************************

.SUBCKT NAND2_FINAL IN0 IN1 OUT VDD VSS
*.PININFO IN0:I IN1:I OUT:O VDD:B VSS:B
MM3 net13 IN1 VSS VSS N_18 W=470.00n L=180.00n m=1
MM2 OUT IN0 net13 VSS N_18 W=470.00n L=180.00n m=1
MM1 OUT IN1 VDD VDD P_18 W=470.00n L=180.00n m=1
MM0 OUT IN0 VDD VDD P_18 W=470.00n L=180.00n m=1
.ENDS

************************************************************************
* Library Name: FINAL_PROJECT
* Cell Name:    AND2_2OUT
* View Name:    schematic
************************************************************************

.SUBCKT AND2_2OUT IN0 IN1 OUT OUTB VDD VSS
*.PININFO IN0:I IN1:I OUT:O OUTB:O VDD:B VSS:B
XI3 VDD OUTB OUT VSS / inv_schematic
XI2 IN0 IN1 OUTB VDD VSS / NAND2_FINAL
.ENDS

************************************************************************
* Library Name: FINAL_PROJECT
* Cell Name:    DFF_FINAL
* View Name:    schematic
************************************************************************

.SUBCKT DFF_FINAL CLK CLKB D GND Q VDD
*.PININFO CLK:I CLKB:I D:I Q:O GND:B VDD:B
XI6 VDD net21 net48 GND / inv_schematic
XI7 VDD net44 Q GND / inv_schematic
XI8 VDD Q net059 GND / inv_schematic
XI5 VDD net52 net21 GND / inv_schematic
MM7 net059 CLKB net44 GND N_18 W=500.0n L=180.00n
MM6 net44 CLK net21 GND N_18 W=500.0n L=180.00n
MM5 net48 CLK net52 GND N_18 W=500.0n L=180.00n
MM4 net52 CLKB D GND N_18 W=500.0n L=180.00n
MM3 net059 CLK net44 VDD P_18 W=1.5u L=180.00n
MM2 net44 CLKB net21 VDD P_18 W=1.5u L=180.00n
MM1 net48 CLKB net52 VDD P_18 W=1.5u L=180.00n
MM0 net52 CLK D VDD P_18 W=1.5u L=180.00n
.ENDS

************************************************************************
* Library Name: FINAL_PROJECT
* Cell Name:    DFFX7
* View Name:    schematic
************************************************************************

.SUBCKT DFFX7 A<3> A<4> A<5> A<6> A<7> A<8> A<9> CLK CLKB VDD VSS WL_EN in0 
+ in1 in2 in3 in4 in5 in6 inb0 inb1 inb2 inb3 inb4 inb5 inb6
*.PININFO A<3>:I A<4>:I A<5>:I A<6>:I A<7>:I A<8>:I A<9>:I CLK:I CLKB:I 
*.PININFO WL_EN:I in0:O in1:O in2:O in3:O in4:O in5:O in6:O inb0:O inb1:O 
*.PININFO inb2:O inb3:O inb4:O inb5:O inb6:O VDD:B VSS:B
XI69 WL_EN net0134 in1 inb1 VDD VSS / AND2_2OUT
XI70 WL_EN net0128 in2 inb2 VDD VSS / AND2_2OUT
XI73 WL_EN net098 in5 inb5 VDD VSS / AND2_2OUT
XI74 WL_EN net0110 in6 inb6 VDD VSS / AND2_2OUT
XI71 WL_EN net0104 in3 inb3 VDD VSS / AND2_2OUT
XI72 WL_EN net0116 in4 inb4 VDD VSS / AND2_2OUT
XI68 WL_EN net0122 in0 inb0 VDD VSS / AND2_2OUT
XI65 CLK CLKB A<8> VSS net098 VDD / DFF_FINAL
XI63 CLK CLKB A<6> VSS net0104 VDD / DFF_FINAL
XI66 CLK CLKB A<9> VSS net0110 VDD / DFF_FINAL
XI64 CLK CLKB A<7> VSS net0116 VDD / DFF_FINAL
XI60 CLK CLKB A<3> VSS net0122 VDD / DFF_FINAL
XI62 CLK CLKB A<5> VSS net0128 VDD / DFF_FINAL
XI61 CLK CLKB A<4> VSS net0134 VDD / DFF_FINAL
.ENDS

************************************************************************
* Library Name: FINAL_PROJECT
* Cell Name:    NOR2_FINAL
* View Name:    schematic
************************************************************************

.SUBCKT NOR2_FINAL IN0 IN1 OUT VDD VSS
*.PININFO IN0:I IN1:I OUT:O VDD:B VSS:B
MM6 net21 IN0 VDD VDD P_18 W=470.00n L=180.00n m=1
MM7 OUT IN1 net21 VDD P_18 W=470.00n L=180.00n m=1
MM4 OUT IN1 VSS VSS N_18 W=470.00n L=180.00n m=1
MM5 OUT IN0 VSS VSS N_18 W=470.00n L=180.00n m=1
.ENDS

************************************************************************
* Library Name: FINAL_PROJECT
* Cell Name:    NAND3_FINAL
* View Name:    schematic
************************************************************************

.SUBCKT NAND3_FINAL IN0 IN1 IN2 OUT VDD VSS
*.PININFO IN0:I IN1:I IN2:I OUT:O VDD:B VSS:B
MM16 OUT IN2 net034 VSS N_18 W=470.00n L=180.00n m=1
MM17 net034 IN1 net048 VSS N_18 W=470.00n L=180.00n m=1
MM18 net048 IN0 VSS VSS N_18 W=470.00n L=180.00n m=1
MM12 OUT IN2 VDD VDD P_18 W=470.00n L=180.00n
MM13 OUT IN1 VDD VDD P_18 W=470.00n L=180.00n m=1
MM14 OUT IN0 VDD VDD P_18 W=470.00n L=180.00n m=1
.ENDS

************************************************************************
* Library Name: FINAL_PROJECT
* Cell Name:    PREDEC3_VER2_FINAL
* View Name:    schematic
************************************************************************

.SUBCKT PREDEC3_VER2_FINAL IN0 IN1 IN2 INB0 INB1 INB2 OUT0 OUT1 OUT2 OUT3 OUT4 
+ OUT5 OUT6 OUT7 VDD VSS
*.PININFO IN0:I IN1:I IN2:I INB0:I INB1:I INB2:I OUT0:O OUT1:O OUT2:O OUT3:O 
*.PININFO OUT4:O OUT5:O OUT6:O OUT7:O VDD:B VSS:B
XI18 IN0 INB1 INB2 OUT4 VDD VSS / NAND3_FINAL
XI19 INB0 INB1 INB2 OUT0 VDD VSS / NAND3_FINAL
XI12 IN0 IN1 IN2 OUT7 VDD VSS / NAND3_FINAL
XI13 INB0 IN1 IN2 OUT3 VDD VSS / NAND3_FINAL
XI14 IN0 INB1 IN2 OUT5 VDD VSS / NAND3_FINAL
XI15 INB0 INB1 IN2 OUT1 VDD VSS / NAND3_FINAL
XI16 IN0 IN1 INB2 OUT6 VDD VSS / NAND3_FINAL
XI17 INB0 IN1 INB2 OUT2 VDD VSS / NAND3_FINAL
.ENDS

************************************************************************
* Library Name: FINAL_PROJECT
* Cell Name:    PREDEC2_VER2_FINAL
* View Name:    schematic
************************************************************************

.SUBCKT PREDEC2_VER2_FINAL IN0 IN1 INB0 INB1 OUT0 OUT1 OUT2 OUT3 VDD VSS
*.PININFO IN0:I IN1:I INB0:I INB1:I OUT0:O OUT1:O OUT2:O OUT3:O VDD:B VSS:B
XI21 INB0 INB1 OUT0 VDD VSS / NOR2_FINAL
XI20 IN0 INB1 OUT1 VDD VSS / NOR2_FINAL
XI19 INB0 IN1 OUT2 VDD VSS / NOR2_FINAL
XI18 IN0 IN1 OUT3 VDD VSS / NOR2_FINAL
.ENDS

************************************************************************
* Library Name: FINAL_PROJECT
* Cell Name:    PREDEC4_VER2_FINAL
* View Name:    schematic
************************************************************************

.SUBCKT PREDEC4_VER2_FINAL IN0 IN1 IN2 IN3 INB0 INB1 INB2 INB3 VDD VSS out<0> 
+ out<1> out<2> out<3> out<4> out<5> out<6> out<7> out<8> out<9> out<10> 
+ out<11> out<12> out<13> out<14> out<15>
*.PININFO IN0:I IN1:I IN2:I IN3:I INB0:I INB1:I INB2:I INB3:I out<0>:O 
*.PININFO out<1>:O out<2>:O out<3>:O out<4>:O out<5>:O out<6>:O out<7>:O 
*.PININFO out<8>:O out<9>:O out<10>:O out<11>:O out<12>:O out<13>:O out<14>:O 
*.PININFO out<15>:O VDD:B VSS:B
XI82 net113 net36 out<11> VDD VSS / NAND2_FINAL
XI81 net112 net103 out<4> VDD VSS / NAND2_FINAL
XI77 net111 net103 out<0> VDD VSS / NAND2_FINAL
XI85 net113 net103 out<8> VDD VSS / NAND2_FINAL
XI79 net112 net31 out<6> VDD VSS / NAND2_FINAL
XI83 net113 net31 out<10> VDD VSS / NAND2_FINAL
XI89 net114 net103 out<12> VDD VSS / NAND2_FINAL
XI80 net112 net104 out<5> VDD VSS / NAND2_FINAL
XI87 net114 net31 out<14> VDD VSS / NAND2_FINAL
XI88 net114 net104 out<13> VDD VSS / NAND2_FINAL
XI78 net112 net36 out<7> VDD VSS / NAND2_FINAL
XI84 net113 net104 out<9> VDD VSS / NAND2_FINAL
XI74 net111 net36 out<3> VDD VSS / NAND2_FINAL
XI75 net111 net31 out<2> VDD VSS / NAND2_FINAL
XI86 net114 net36 out<15> VDD VSS / NAND2_FINAL
XI76 net111 net104 out<1> VDD VSS / NAND2_FINAL
XI72 IN1 IN0 INB1 INB0 net114 net113 net112 net111 VDD VSS / PREDEC2_VER2_FINAL
XI73 IN3 IN2 INB3 INB2 net36 net31 net104 net103 VDD VSS / PREDEC2_VER2_FINAL
.ENDS

************************************************************************
* Library Name: FINAL_PROJECT
* Cell Name:    DEC7_VER2
* View Name:    schematic
************************************************************************

.SUBCKT DEC7_VER2 VDD VSS WL_EN2 in<0> in<1> in<2> in<3> in<4> in<5> in<6> 
+ inb<0> inb<1> inb<2> inb<3> inb<4> inb<5> inb<6> out<0> out<1> out<2> out<3> 
+ out<4> out<5> out<6> out<7> out<8> out<9> out<10> out<11> out<12> out<13> 
+ out<14> out<15> out<16> out<17> out<18> out<19> out<20> out<21> out<22> 
+ out<23> out<24> out<25> out<26> out<27> out<28> out<29> out<30> out<31> 
+ out<32> out<33> out<34> out<35> out<36> out<37> out<38> out<39> out<40> 
+ out<41> out<42> out<43> out<44> out<45> out<46> out<47> out<48> out<49> 
+ out<50> out<51> out<52> out<53> out<54> out<55> out<56> out<57> out<58> 
+ out<59> out<60> out<61> out<62> out<63> out<64> out<65> out<66> out<67> 
+ out<68> out<69> out<70> out<71> out<72> out<73> out<74> out<75> out<76> 
+ out<77> out<78> out<79> out<80> out<81> out<82> out<83> out<84> out<85> 
+ out<86> out<87> out<88> out<89> out<90> out<91> out<92> out<93> out<94> 
+ out<95> out<96> out<97> out<98> out<99> out<100> out<101> out<102> out<103> 
+ out<104> out<105> out<106> out<107> out<108> out<109> out<110> out<111> 
+ out<112> out<113> out<114> out<115> out<116> out<117> out<118> out<119> 
+ out<120> out<121> out<122> out<123> out<124> out<125> out<126> out<127>
*.PININFO WL_EN2:I in<0>:I in<1>:I in<2>:I in<3>:I in<4>:I in<5>:I in<6>:I 
*.PININFO inb<0>:I inb<1>:I inb<2>:I inb<3>:I inb<4>:I inb<5>:I inb<6>:I 
*.PININFO out<0>:O out<1>:O out<2>:O out<3>:O out<4>:O out<5>:O out<6>:O 
*.PININFO out<7>:O out<8>:O out<9>:O out<10>:O out<11>:O out<12>:O out<13>:O 
*.PININFO out<14>:O out<15>:O out<16>:O out<17>:O out<18>:O out<19>:O 
*.PININFO out<20>:O out<21>:O out<22>:O out<23>:O out<24>:O out<25>:O 
*.PININFO out<26>:O out<27>:O out<28>:O out<29>:O out<30>:O out<31>:O 
*.PININFO out<32>:O out<33>:O out<34>:O out<35>:O out<36>:O out<37>:O 
*.PININFO out<38>:O out<39>:O out<40>:O out<41>:O out<42>:O out<43>:O 
*.PININFO out<44>:O out<45>:O out<46>:O out<47>:O out<48>:O out<49>:O 
*.PININFO out<50>:O out<51>:O out<52>:O out<53>:O out<54>:O out<55>:O 
*.PININFO out<56>:O out<57>:O out<58>:O out<59>:O out<60>:O out<61>:O 
*.PININFO out<62>:O out<63>:O out<64>:O out<65>:O out<66>:O out<67>:O 
*.PININFO out<68>:O out<69>:O out<70>:O out<71>:O out<72>:O out<73>:O 
*.PININFO out<74>:O out<75>:O out<76>:O out<77>:O out<78>:O out<79>:O 
*.PININFO out<80>:O out<81>:O out<82>:O out<83>:O out<84>:O out<85>:O 
*.PININFO out<86>:O out<87>:O out<88>:O out<89>:O out<90>:O out<91>:O 
*.PININFO out<92>:O out<93>:O out<94>:O out<95>:O out<96>:O out<97>:O 
*.PININFO out<98>:O out<99>:O out<100>:O out<101>:O out<102>:O out<103>:O 
*.PININFO out<104>:O out<105>:O out<106>:O out<107>:O out<108>:O out<109>:O 
*.PININFO out<110>:O out<111>:O out<112>:O out<113>:O out<114>:O out<115>:O 
*.PININFO out<116>:O out<117>:O out<118>:O out<119>:O out<120>:O out<121>:O 
*.PININFO out<122>:O out<123>:O out<124>:O out<125>:O out<126>:O out<127>:O 
*.PININFO VDD:B VSS:B
XI652 VDD net01023 out<127> VSS / BUFFER1_FINAL
XI649 WL_EN2 net0388 out<0> net0373 VDD VSS / AND2_2OUT
XI521 net180 net795 net0388 VDD VSS / NOR2_FINAL
XI522 net180 net794 out<8> VDD VSS / NOR2_FINAL
XI523 net180 net793 out<16> VDD VSS / NOR2_FINAL
XI524 net180 net792 out<24> VDD VSS / NOR2_FINAL
XI525 net180 net791 out<32> VDD VSS / NOR2_FINAL
XI526 net180 net790 out<40> VDD VSS / NOR2_FINAL
XI527 net180 net789 out<48> VDD VSS / NOR2_FINAL
XI528 net180 net788 out<56> VDD VSS / NOR2_FINAL
XI529 net180 net787 out<64> VDD VSS / NOR2_FINAL
XI530 net180 net786 out<72> VDD VSS / NOR2_FINAL
XI531 net180 net785 out<80> VDD VSS / NOR2_FINAL
XI532 net180 net784 out<88> VDD VSS / NOR2_FINAL
XI533 net180 net783 out<96> VDD VSS / NOR2_FINAL
XI534 net180 net782 out<104> VDD VSS / NOR2_FINAL
XI535 net180 net781 out<112> VDD VSS / NOR2_FINAL
XI536 net180 net780 out<120> VDD VSS / NOR2_FINAL
XI537 net245 net795 out<4> VDD VSS / NOR2_FINAL
XI538 net245 net794 out<12> VDD VSS / NOR2_FINAL
XI539 net245 net793 out<20> VDD VSS / NOR2_FINAL
XI540 net245 net792 out<28> VDD VSS / NOR2_FINAL
XI541 net245 net791 out<36> VDD VSS / NOR2_FINAL
XI542 net245 net790 out<44> VDD VSS / NOR2_FINAL
XI543 net245 net789 out<52> VDD VSS / NOR2_FINAL
XI544 net245 net788 out<60> VDD VSS / NOR2_FINAL
XI545 net245 net787 out<68> VDD VSS / NOR2_FINAL
XI546 net245 net786 out<76> VDD VSS / NOR2_FINAL
XI547 net245 net785 out<84> VDD VSS / NOR2_FINAL
XI548 net245 net784 out<92> VDD VSS / NOR2_FINAL
XI549 net245 net783 out<100> VDD VSS / NOR2_FINAL
XI550 net245 net782 out<108> VDD VSS / NOR2_FINAL
XI551 net245 net781 out<116> VDD VSS / NOR2_FINAL
XI552 net245 net780 out<124> VDD VSS / NOR2_FINAL
XI553 net375 net795 out<2> VDD VSS / NOR2_FINAL
XI554 net375 net794 out<10> VDD VSS / NOR2_FINAL
XI555 net375 net793 out<18> VDD VSS / NOR2_FINAL
XI556 net375 net792 out<26> VDD VSS / NOR2_FINAL
XI557 net375 net791 out<34> VDD VSS / NOR2_FINAL
XI558 net375 net790 out<42> VDD VSS / NOR2_FINAL
XI559 net375 net789 out<50> VDD VSS / NOR2_FINAL
XI560 net375 net788 out<58> VDD VSS / NOR2_FINAL
XI561 net375 net787 out<66> VDD VSS / NOR2_FINAL
XI562 net375 net786 out<74> VDD VSS / NOR2_FINAL
XI563 net375 net785 out<82> VDD VSS / NOR2_FINAL
XI564 net375 net784 out<90> VDD VSS / NOR2_FINAL
XI565 net375 net783 out<98> VDD VSS / NOR2_FINAL
XI566 net375 net782 out<106> VDD VSS / NOR2_FINAL
XI567 net375 net781 out<114> VDD VSS / NOR2_FINAL
XI568 net375 net780 out<122> VDD VSS / NOR2_FINAL
XI569 net455 net795 out<6> VDD VSS / NOR2_FINAL
XI570 net455 net794 out<14> VDD VSS / NOR2_FINAL
XI571 net455 net793 out<22> VDD VSS / NOR2_FINAL
XI572 net455 net792 out<30> VDD VSS / NOR2_FINAL
XI573 net455 net791 out<38> VDD VSS / NOR2_FINAL
XI574 net455 net790 out<46> VDD VSS / NOR2_FINAL
XI575 net455 net789 out<54> VDD VSS / NOR2_FINAL
XI576 net455 net788 out<62> VDD VSS / NOR2_FINAL
XI577 net455 net787 out<70> VDD VSS / NOR2_FINAL
XI578 net455 net786 out<78> VDD VSS / NOR2_FINAL
XI579 net455 net785 out<86> VDD VSS / NOR2_FINAL
XI580 net455 net784 out<94> VDD VSS / NOR2_FINAL
XI581 net455 net783 out<102> VDD VSS / NOR2_FINAL
XI582 net455 net782 out<110> VDD VSS / NOR2_FINAL
XI583 net455 net781 out<118> VDD VSS / NOR2_FINAL
XI584 net455 net780 out<126> VDD VSS / NOR2_FINAL
XI585 net535 net795 out<1> VDD VSS / NOR2_FINAL
XI586 net535 net794 out<9> VDD VSS / NOR2_FINAL
XI587 net535 net793 out<17> VDD VSS / NOR2_FINAL
XI588 net535 net792 out<25> VDD VSS / NOR2_FINAL
XI589 net535 net791 out<33> VDD VSS / NOR2_FINAL
XI590 net535 net790 out<41> VDD VSS / NOR2_FINAL
XI591 net535 net789 out<49> VDD VSS / NOR2_FINAL
XI592 net535 net788 out<57> VDD VSS / NOR2_FINAL
XI593 net535 net787 out<65> VDD VSS / NOR2_FINAL
XI594 net535 net786 out<73> VDD VSS / NOR2_FINAL
XI595 net535 net785 out<81> VDD VSS / NOR2_FINAL
XI596 net535 net784 out<89> VDD VSS / NOR2_FINAL
XI597 net535 net783 out<97> VDD VSS / NOR2_FINAL
XI598 net535 net782 out<105> VDD VSS / NOR2_FINAL
XI599 net535 net781 out<113> VDD VSS / NOR2_FINAL
XI600 net535 net780 out<121> VDD VSS / NOR2_FINAL
XI601 net803 net795 out<5> VDD VSS / NOR2_FINAL
XI602 net803 net794 out<13> VDD VSS / NOR2_FINAL
XI603 net803 net793 out<21> VDD VSS / NOR2_FINAL
XI604 net803 net792 out<29> VDD VSS / NOR2_FINAL
XI605 net803 net791 out<37> VDD VSS / NOR2_FINAL
XI606 net803 net790 out<45> VDD VSS / NOR2_FINAL
XI607 net803 net789 out<53> VDD VSS / NOR2_FINAL
XI608 net803 net788 out<61> VDD VSS / NOR2_FINAL
XI609 net803 net787 out<69> VDD VSS / NOR2_FINAL
XI610 net803 net786 out<77> VDD VSS / NOR2_FINAL
XI611 net803 net785 out<85> VDD VSS / NOR2_FINAL
XI612 net803 net784 out<93> VDD VSS / NOR2_FINAL
XI613 net803 net783 out<101> VDD VSS / NOR2_FINAL
XI614 net803 net782 out<109> VDD VSS / NOR2_FINAL
XI615 net803 net781 out<117> VDD VSS / NOR2_FINAL
XI616 net803 net780 out<125> VDD VSS / NOR2_FINAL
XI617 net802 net795 out<3> VDD VSS / NOR2_FINAL
XI618 net802 net794 out<11> VDD VSS / NOR2_FINAL
XI619 net802 net793 out<19> VDD VSS / NOR2_FINAL
XI620 net802 net792 out<27> VDD VSS / NOR2_FINAL
XI621 net802 net791 out<35> VDD VSS / NOR2_FINAL
XI622 net802 net790 out<43> VDD VSS / NOR2_FINAL
XI623 net802 net789 out<51> VDD VSS / NOR2_FINAL
XI624 net802 net788 out<59> VDD VSS / NOR2_FINAL
XI625 net802 net787 out<67> VDD VSS / NOR2_FINAL
XI626 net802 net786 out<75> VDD VSS / NOR2_FINAL
XI627 net802 net785 out<83> VDD VSS / NOR2_FINAL
XI628 net802 net784 out<91> VDD VSS / NOR2_FINAL
XI629 net802 net783 out<99> VDD VSS / NOR2_FINAL
XI630 net802 net782 out<107> VDD VSS / NOR2_FINAL
XI631 net802 net781 out<115> VDD VSS / NOR2_FINAL
XI632 net802 net780 out<123> VDD VSS / NOR2_FINAL
XI633 net801 net795 out<7> VDD VSS / NOR2_FINAL
XI634 net801 net794 out<15> VDD VSS / NOR2_FINAL
XI635 net801 net793 out<23> VDD VSS / NOR2_FINAL
XI636 net801 net792 out<31> VDD VSS / NOR2_FINAL
XI637 net801 net791 out<39> VDD VSS / NOR2_FINAL
XI638 net801 net790 out<47> VDD VSS / NOR2_FINAL
XI639 net801 net789 out<55> VDD VSS / NOR2_FINAL
XI640 net801 net788 out<63> VDD VSS / NOR2_FINAL
XI641 net801 net787 out<71> VDD VSS / NOR2_FINAL
XI642 net801 net786 out<79> VDD VSS / NOR2_FINAL
XI643 net801 net785 out<87> VDD VSS / NOR2_FINAL
XI644 net801 net784 out<95> VDD VSS / NOR2_FINAL
XI645 net801 net783 out<103> VDD VSS / NOR2_FINAL
XI646 net801 net782 out<111> VDD VSS / NOR2_FINAL
XI647 net801 net781 out<119> VDD VSS / NOR2_FINAL
XI648 net801 net780 net01023 VDD VSS / NOR2_FINAL
XI520 in<6> in<5> in<4> inb<6> inb<5> inb<4> net180 net245 net375 net455 
+ net535 net803 net802 net801 VDD VSS / PREDEC3_VER2_FINAL
XI519 in<0> in<1> in<2> in<3> inb<0> inb<1> inb<2> inb<3> VDD VSS net795 
+ net794 net793 net792 net791 net790 net789 net788 net787 net786 net785 net784 
+ net783 net782 net781 net780 / PREDEC4_VER2_FINAL
.ENDS

************************************************************************
* Library Name: FINAL_PROJECT
* Cell Name:    ROM_ARRAY_PRECHARGE_FINAL
* View Name:    schematic
************************************************************************

.SUBCKT ROM_ARRAY_PRECHARGE_FINAL BL<0> BL<1> BL<2> BL<3> BL<4> BL<5> BL<6> 
+ BL<7> BL<8> BL<9> BL<10> BL<11> BL<12> BL<13> BL<14> BL<15> PRE_B VDD VSS 
+ WL<0> WL<1> WL<2> WL<3> WL<4> WL<5> WL<6> WL<7> WL<8> WL<9> WL<10> WL<11> 
+ WL<12> WL<13> WL<14> WL<15> WL<16> WL<17> WL<18> WL<19> WL<20> WL<21> WL<22> 
+ WL<23> WL<24> WL<25> WL<26> WL<27> WL<28> WL<29> WL<30> WL<31> WL<32> WL<33> 
+ WL<34> WL<35> WL<36> WL<37> WL<38> WL<39> WL<40> WL<41> WL<42> WL<43> WL<44> 
+ WL<45> WL<46> WL<47> WL<48> WL<49> WL<50> WL<51> WL<52> WL<53> WL<54> WL<55> 
+ WL<56> WL<57> WL<58> WL<59> WL<60> WL<61> WL<62> WL<63> WL<64> WL<65> WL<66> 
+ WL<67> WL<68> WL<69> WL<70> WL<71> WL<72> WL<73> WL<74> WL<75> WL<76> WL<77> 
+ WL<78> WL<79> WL<80> WL<81> WL<82> WL<83> WL<84> WL<85> WL<86> WL<87> WL<88> 
+ WL<89> WL<90> WL<91> WL<92> WL<93> WL<94> WL<95> WL<96> WL<97> WL<98> WL<99> 
+ WL<100> WL<101> WL<102> WL<103> WL<104> WL<105> WL<106> WL<107> WL<108> 
+ WL<109> WL<110> WL<111> WL<112> WL<113> WL<114> WL<115> WL<116> WL<117> 
+ WL<118> WL<119> WL<120> WL<121> WL<122> WL<123> WL<124> WL<125> WL<126> 
+ WL<127>
*.PININFO PRE_B:I WL<0>:I WL<1>:I WL<2>:I WL<3>:I WL<4>:I WL<5>:I WL<6>:I 
*.PININFO WL<7>:I WL<8>:I WL<9>:I WL<10>:I WL<11>:I WL<12>:I WL<13>:I WL<14>:I 
*.PININFO WL<15>:I WL<16>:I WL<17>:I WL<18>:I WL<19>:I WL<20>:I WL<21>:I 
*.PININFO WL<22>:I WL<23>:I WL<24>:I WL<25>:I WL<26>:I WL<27>:I WL<28>:I 
*.PININFO WL<29>:I WL<30>:I WL<31>:I WL<32>:I WL<33>:I WL<34>:I WL<35>:I 
*.PININFO WL<36>:I WL<37>:I WL<38>:I WL<39>:I WL<40>:I WL<41>:I WL<42>:I 
*.PININFO WL<43>:I WL<44>:I WL<45>:I WL<46>:I WL<47>:I WL<48>:I WL<49>:I 
*.PININFO WL<50>:I WL<51>:I WL<52>:I WL<53>:I WL<54>:I WL<55>:I WL<56>:I 
*.PININFO WL<57>:I WL<58>:I WL<59>:I WL<60>:I WL<61>:I WL<62>:I WL<63>:I 
*.PININFO WL<64>:I WL<65>:I WL<66>:I WL<67>:I WL<68>:I WL<69>:I WL<70>:I 
*.PININFO WL<71>:I WL<72>:I WL<73>:I WL<74>:I WL<75>:I WL<76>:I WL<77>:I 
*.PININFO WL<78>:I WL<79>:I WL<80>:I WL<81>:I WL<82>:I WL<83>:I WL<84>:I 
*.PININFO WL<85>:I WL<86>:I WL<87>:I WL<88>:I WL<89>:I WL<90>:I WL<91>:I 
*.PININFO WL<92>:I WL<93>:I WL<94>:I WL<95>:I WL<96>:I WL<97>:I WL<98>:I 
*.PININFO WL<99>:I WL<100>:I WL<101>:I WL<102>:I WL<103>:I WL<104>:I WL<105>:I 
*.PININFO WL<106>:I WL<107>:I WL<108>:I WL<109>:I WL<110>:I WL<111>:I 
*.PININFO WL<112>:I WL<113>:I WL<114>:I WL<115>:I WL<116>:I WL<117>:I 
*.PININFO WL<118>:I WL<119>:I WL<120>:I WL<121>:I WL<122>:I WL<123>:I 
*.PININFO WL<124>:I WL<125>:I WL<126>:I WL<127>:I BL<0>:O BL<1>:O BL<2>:O 
*.PININFO BL<3>:O BL<4>:O BL<5>:O BL<6>:O BL<7>:O BL<8>:O BL<9>:O BL<10>:O 
*.PININFO BL<11>:O BL<12>:O BL<13>:O BL<14>:O BL<15>:O VDD:B VSS:B
MM16 BL<0> PRE_B VDD VDD P_18 W=470.00n L=180.00n m=1
MM17 BL<1> PRE_B VDD VDD P_18 W=470.00n L=180.00n m=1
MM18 BL<2> PRE_B VDD VDD P_18 W=470.00n L=180.00n m=1
MM19 BL<3> PRE_B VDD VDD P_18 W=470.00n L=180.00n m=1
MM20 BL<4> PRE_B VDD VDD P_18 W=470.00n L=180.00n m=1
MM21 BL<5> PRE_B VDD VDD P_18 W=470.00n L=180.00n m=1
MM22 BL<6> PRE_B VDD VDD P_18 W=470.00n L=180.00n m=1
MM23 BL<7> PRE_B VDD VDD P_18 W=470.00n L=180.00n m=1
MM24 BL<8> PRE_B VDD VDD P_18 W=470.00n L=180.00n m=1
MM25 BL<9> PRE_B VDD VDD P_18 W=470.00n L=180.00n m=1
MM26 BL<10> PRE_B VDD VDD P_18 W=470.00n L=180.00n m=1
MM27 BL<11> PRE_B VDD VDD P_18 W=470.00n L=180.00n m=1
MM28 BL<12> PRE_B VDD VDD P_18 W=470.00n L=180.00n m=1
MM29 BL<13> PRE_B VDD VDD P_18 W=470.00n L=180.00n m=1
MM30 BL<14> PRE_B VDD VDD P_18 W=470.00n L=180.00n m=1
MM31 BL<15> PRE_B VDD VDD P_18 W=470.00n L=180.00n m=1
MM3359 net3486 WL<121> VSS VSS N_18 W=470.00n L=180.00n m=1
MM3358 BL<14> WL<121> VSS VSS N_18 W=470.00n L=180.00n m=1
MM3357 net3494 WL<121> VSS VSS N_18 W=470.00n L=180.00n m=1
MM3356 BL<12> WL<121> VSS VSS N_18 W=470.00n L=180.00n m=1
MM3355 net3502 WL<121> VSS VSS N_18 W=470.00n L=180.00n m=1
MM3354 BL<10> WL<121> VSS VSS N_18 W=470.00n L=180.00n m=1
MM3353 net3510 WL<121> VSS VSS N_18 W=470.00n L=180.00n m=1
MM3352 BL<8> WL<121> VSS VSS N_18 W=470.00n L=180.00n m=1
MM3351 net3518 WL<121> VSS VSS N_18 W=470.00n L=180.00n m=1
MM3350 BL<6> WL<121> VSS VSS N_18 W=470.00n L=180.00n m=1
MM3349 net3526 WL<121> VSS VSS N_18 W=470.00n L=180.00n m=1
MM3348 BL<4> WL<121> VSS VSS N_18 W=470.00n L=180.00n m=1
MM3347 net3534 WL<121> VSS VSS N_18 W=470.00n L=180.00n m=1
MM3346 BL<2> WL<121> VSS VSS N_18 W=470.00n L=180.00n m=1
MM3345 net3542 WL<121> VSS VSS N_18 W=470.00n L=180.00n m=1
MM3344 BL<0> WL<121> VSS VSS N_18 W=470.00n L=180.00n m=1
MM3343 net3550 WL<120> VSS VSS N_18 W=470.00n L=180.00n m=1
MM3342 BL<1> WL<120> VSS VSS N_18 W=470.00n L=180.00n m=1
MM3341 net3558 WL<120> VSS VSS N_18 W=470.00n L=180.00n m=1
MM3340 BL<3> WL<120> VSS VSS N_18 W=470.00n L=180.00n m=1
MM3339 net3566 WL<120> VSS VSS N_18 W=470.00n L=180.00n m=1
MM3338 BL<5> WL<120> VSS VSS N_18 W=470.00n L=180.00n m=1