* File: ROM_TEST6.pex.spi
* Created: Mon Jan 16 14:53:16 2023
* Program "Calibre xRC"
* Version "v2016.4_15.11"
* 
.include "ROM_TEST6.pex.spi.pex"
.subckt FINAL_TEST4  VSS VDD CLK DOUT<0> DOUT<1> A<9> A<8> A<7> A<3> A<4> A<5>
+ A<6> A<2> A<1> A<0> VREF
* 
* VREF	VREF
* A<0>	A<0>
* A<1>	A<1>
* A<2>	A<2>
* A<6>	A<6>
* A<5>	A<5>
* A<4>	A<4>
* A<3>	A<3>
* A<7>	A<7>
* A<8>	A<8>
* A<9>	A<9>
* DOUT<1>	DOUT<1>
* DOUT<0>	DOUT<0>
* CLK	CLK
* VDD	VDD
* GND	GND
mXI42/XI519/XI72/XI21/MM5 N_XI42/XI519/NET114_XI42/XI519/XI72/XI21/MM5_d
+ N_NET127_XI42/XI519/XI72/XI21/MM5_g N_VSS_XI42/XI519/XI72/XI21/MM5_s
+ N_VSS_XI42/XI519/XI72/XI21/MM5_b N_18 L=1.8e-07 W=4.7e-07 AD=1.692e-13
+ AS=2.397e-13 PD=7.2e-07 PS=1.49e-06
mXI42/XI519/XI73/XI21/MM5 N_XI42/XI519/NET36_XI42/XI519/XI73/XI21/MM5_d
+ N_NET141_XI42/XI519/XI73/XI21/MM5_g N_VSS_XI42/XI519/XI73/XI21/MM5_s
+ N_VSS_XI42/XI519/XI72/XI21/MM5_b N_18 L=1.8e-07 W=4.7e-07 AD=1.692e-13
+ AS=2.397e-13 PD=7.2e-07 PS=1.49e-06
mXI48/XI66/MM4 N_XI48/XI66/NET52_XI48/XI66/MM4_d N_NET90_XI48/XI66/MM4_g
+ N_A<9>_XI48/XI66/MM4_s N_VSS_XI42/XI519/XI72/XI21/MM5_b N_18 L=1.8e-07 W=5e-07
+ AD=2.45e-13 AS=2.45e-13 PD=1.48e-06 PS=1.48e-06
mXI48/XI66/MM5 N_XI48/XI66/NET48_XI48/XI66/MM5_d N_CLK_XI48/XI66/MM5_g
+ N_XI48/XI66/NET52_XI48/XI66/MM5_s N_VSS_XI42/XI519/XI72/XI21/MM5_b N_18
+ L=1.8e-07 W=5e-07 AD=2.45e-13 AS=2.45e-13 PD=1.48e-06 PS=1.48e-06
mXI48/XI65/MM4 N_XI48/XI65/NET52_XI48/XI65/MM4_d N_NET90_XI48/XI65/MM4_g
+ N_A<8>_XI48/XI65/MM4_s N_VSS_XI42/XI519/XI72/XI21/MM5_b N_18 L=1.8e-07 W=5e-07
+ AD=2.45e-13 AS=2.45e-13 PD=1.48e-06 PS=1.48e-06
mXI48/XI65/MM5 N_XI48/XI65/NET48_XI48/XI65/MM5_d N_CLK_XI48/XI65/MM5_g
+ N_XI48/XI65/NET52_XI48/XI65/MM5_s N_VSS_XI42/XI519/XI72/XI21/MM5_b N_18
+ L=1.8e-07 W=5e-07 AD=2.45e-13 AS=2.45e-13 PD=1.48e-06 PS=1.48e-06
mXI48/XI64/MM4 N_XI48/XI64/NET52_XI48/XI64/MM4_d N_NET90_XI48/XI64/MM4_g
+ N_A<7>_XI48/XI64/MM4_s N_VSS_XI42/XI519/XI72/XI21/MM5_b N_18 L=1.8e-07 W=5e-07
+ AD=2.45e-13 AS=2.45e-13 PD=1.48e-06 PS=1.48e-06
mXI48/XI64/MM5 N_XI48/XI64/NET48_XI48/XI64/MM5_d N_CLK_XI48/XI64/MM5_g
+ N_XI48/XI64/NET52_XI48/XI64/MM5_s N_VSS_XI42/XI519/XI72/XI21/MM5_b N_18
+ L=1.8e-07 W=5e-07 AD=2.45e-13 AS=2.45e-13 PD=1.48e-06 PS=1.48e-06
mXI48/XI60/MM5 N_XI48/XI60/NET48_XI48/XI60/MM5_d N_CLK_XI48/XI60/MM5_g
+ N_XI48/XI60/NET52_XI48/XI60/MM5_s N_VSS_XI42/XI519/XI72/XI21/MM5_b N_18
+ L=1.8e-07 W=5e-07 AD=2.45e-13 AS=2.45e-13 PD=1.48e-06 PS=1.48e-06
mXI48/XI60/MM4 N_XI48/XI60/NET52_XI48/XI60/MM4_d N_NET90_XI48/XI60/MM4_g
+ N_A<3>_XI48/XI60/MM4_s N_VSS_XI42/XI519/XI72/XI21/MM5_b N_18 L=1.8e-07 W=5e-07
+ AD=2.45e-13 AS=2.45e-13 PD=1.48e-06 PS=1.48e-06
mXI48/XI61/MM4 N_XI48/XI61/NET52_XI48/XI61/MM4_d N_NET90_XI48/XI61/MM4_g
+ N_A<4>_XI48/XI61/MM4_s N_VSS_XI42/XI519/XI72/XI21/MM5_b N_18 L=1.8e-07 W=5e-07
+ AD=2.45e-13 AS=2.45e-13 PD=1.48e-06 PS=1.48e-06
mXI48/XI61/MM5 N_XI48/XI61/NET48_XI48/XI61/MM5_d N_CLK_XI48/XI61/MM5_g
+ N_XI48/XI61/NET52_XI48/XI61/MM5_s N_VSS_XI42/XI519/XI72/XI21/MM5_b N_18
+ L=1.8e-07 W=5e-07 AD=2.45e-13 AS=2.45e-13 PD=1.48e-06 PS=1.48e-06
mXI48/XI62/MM5 N_XI48/XI62/NET48_XI48/XI62/MM5_d N_CLK_XI48/XI62/MM5_g
+ N_XI48/XI62/NET52_XI48/XI62/MM5_s N_VSS_XI42/XI519/XI72/XI21/MM5_b N_18
+ L=1.8e-07 W=5e-07 AD=2.45e-13 AS=2.45e-13 PD=1.48e-06 PS=1.48e-06
mXI48/XI62/MM4 N_XI48/XI62/NET52_XI48/XI62/MM4_d N_NET90_XI48/XI62/MM4_g
+ N_A<5>_XI48/XI62/MM4_s N_VSS_XI42/XI519/XI72/XI21/MM5_b N_18 L=1.8e-07 W=5e-07
+ AD=2.45e-13 AS=2.45e-13 PD=1.48e-06 PS=1.48e-06
mXI48/XI63/MM4 N_XI48/XI63/NET52_XI48/XI63/MM4_d N_NET90_XI48/XI63/MM4_g
+ N_A<6>_XI48/XI63/MM4_s N_VSS_XI42/XI519/XI72/XI21/MM5_b N_18 L=1.8e-07 W=5e-07
+ AD=2.45e-13 AS=2.45e-13 PD=1.48e-06 PS=1.48e-06
mXI48/XI63/MM5 N_XI48/XI63/NET48_XI48/XI63/MM5_d N_CLK_XI48/XI63/MM5_g
+ N_XI48/XI63/NET52_XI48/XI63/MM5_s N_VSS_XI42/XI519/XI72/XI21/MM5_b N_18
+ L=1.8e-07 W=5e-07 AD=2.45e-13 AS=2.45e-13 PD=1.48e-06 PS=1.48e-06
mXI32/XI9/MM4 N_XI32/XI9/NET52_XI32/XI9/MM4_d N_NET90_XI32/XI9/MM4_g
+ N_A<2>_XI32/XI9/MM4_s N_VSS_XI42/XI519/XI72/XI21/MM5_b N_18 L=1.8e-07 W=5e-07
+ AD=2.45e-13 AS=2.45e-13 PD=1.48e-06 PS=1.48e-06
mXI32/XI9/MM5 N_XI32/XI9/NET48_XI32/XI9/MM5_d N_CLK_XI32/XI9/MM5_g
+ N_XI32/XI9/NET52_XI32/XI9/MM5_s N_VSS_XI42/XI519/XI72/XI21/MM5_b N_18
+ L=1.8e-07 W=5e-07 AD=2.45e-13 AS=2.45e-13 PD=1.48e-06 PS=1.48e-06
mXI32/XI8/MM4 N_XI32/XI8/NET52_XI32/XI8/MM4_d N_NET90_XI32/XI8/MM4_g
+ N_A<1>_XI32/XI8/MM4_s N_VSS_XI42/XI519/XI72/XI21/MM5_b N_18 L=1.8e-07 W=5e-07
+ AD=2.45e-13 AS=2.45e-13 PD=1.48e-06 PS=1.48e-06
mXI32/XI8/MM5 N_XI32/XI8/NET48_XI32/XI8/MM5_d N_CLK_XI32/XI8/MM5_g
+ N_XI32/XI8/NET52_XI32/XI8/MM5_s N_VSS_XI42/XI519/XI72/XI21/MM5_b N_18
+ L=1.8e-07 W=5e-07 AD=2.45e-13 AS=2.45e-13 PD=1.48e-06 PS=1.48e-06
mXI32/XI7/MM4 N_XI32/XI7/NET52_XI32/XI7/MM4_d N_NET90_XI32/XI7/MM4_g
+ N_A<0>_XI32/XI7/MM4_s N_VSS_XI42/XI519/XI72/XI21/MM5_b N_18 L=1.8e-07 W=5e-07
+ AD=2.45e-13 AS=2.45e-13 PD=1.48e-06 PS=1.48e-06
mXI32/XI7/MM5 N_XI32/XI7/NET48_XI32/XI7/MM5_d N_CLK_XI32/XI7/MM5_g
+ N_XI32/XI7/NET52_XI32/XI7/MM5_s N_VSS_XI42/XI519/XI72/XI21/MM5_b N_18
+ L=1.8e-07 W=5e-07 AD=2.45e-13 AS=2.45e-13 PD=1.48e-06 PS=1.48e-06
mXI42/XI519/XI72/XI21/MM4 N_XI42/XI519/NET114_XI42/XI519/XI72/XI21/MM4_d
+ N_NET129_XI42/XI519/XI72/XI21/MM4_g N_VSS_XI42/XI519/XI72/XI21/MM4_s
+ N_VSS_XI42/XI519/XI72/XI21/MM5_b N_18 L=1.8e-07 W=4.7e-07 AD=1.692e-13
+ AS=2.397e-13 PD=7.2e-07 PS=1.49e-06
mXI42/XI519/XI73/XI21/MM4 N_XI42/XI519/NET36_XI42/XI519/XI73/XI21/MM4_d
+ N_NET143_XI42/XI519/XI73/XI21/MM4_g N_VSS_XI42/XI519/XI73/XI21/MM4_s
+ N_VSS_XI42/XI519/XI72/XI21/MM5_b N_18 L=1.8e-07 W=4.7e-07 AD=1.692e-13
+ AS=2.397e-13 PD=7.2e-07 PS=1.49e-06
mXI48/XI66/XI5/MM1 N_XI48/XI66/NET21_XI48/XI66/XI5/MM1_d
+ N_XI48/XI66/NET52_XI48/XI66/XI5/MM1_g N_VSS_XI48/XI66/XI5/MM1_s
+ N_VSS_XI42/XI519/XI72/XI21/MM5_b N_18 L=1.8e-07 W=5e-07 AD=2.45e-13
+ AS=2.45e-13 PD=1.48e-06 PS=1.48e-06
mXI48/XI66/XI6/MM1 N_XI48/XI66/NET48_XI48/XI66/XI6/MM1_d
+ N_XI48/XI66/NET21_XI48/XI66/XI6/MM1_g N_VSS_XI48/XI66/XI6/MM1_s
+ N_VSS_XI42/XI519/XI72/XI21/MM5_b N_18 L=1.8e-07 W=5e-07 AD=2.45e-13
+ AS=2.45e-13 PD=1.48e-06 PS=1.48e-06
mXI48/XI65/XI5/MM1 N_XI48/XI65/NET21_XI48/XI65/XI5/MM1_d
+ N_XI48/XI65/NET52_XI48/XI65/XI5/MM1_g N_VSS_XI48/XI65/XI5/MM1_s
+ N_VSS_XI42/XI519/XI72/XI21/MM5_b N_18 L=1.8e-07 W=5e-07 AD=2.45e-13
+ AS=2.45e-13 PD=1.48e-06 PS=1.48e-06
mXI48/XI65/XI6/MM1 N_XI48/XI65/NET48_XI48/XI65/XI6/MM1_d
+ N_XI48/XI65/NET21_XI48/XI65/XI6/MM1_g N_VSS_XI48/XI65/XI6/MM1_s
+ N_VSS_XI42/XI519/XI72/XI21/MM5_b N_18 L=1.8e-07 W=5e-07 AD=2.45e-13
+ AS=2.45e-13 PD=1.48e-06 PS=1.48e-06
mXI48/XI64/XI5/MM1 N_XI48/XI64/NET21_XI48/XI64/XI5/MM1_d
+ N_XI48/XI64/NET52_XI48/XI64/XI5/MM1_g N_VSS_XI48/XI64/XI5/MM1_s
+ N_VSS_XI42/XI519/XI72/XI21/MM5_b N_18 L=1.8e-07 W=5e-07 AD=2.45e-13
+ AS=2.45e-13 PD=1.48e-06 PS=1.48e-06
mXI48/XI64/XI6/MM1 N_XI48/XI64/NET48_XI48/XI64/XI6/MM1_d
+ N_XI48/XI64/NET21_XI48/XI64/XI6/MM1_g N_VSS_XI48/XI64/XI6/MM1_s
+ N_VSS_XI42/XI519/XI72/XI21/MM5_b N_18 L=1.8e-07 W=5e-07 AD=2.45e-13
+ AS=2.45e-13 PD=1.48e-06 PS=1.48e-06
mXI48/XI60/XI6/MM1 N_XI48/XI60/NET48_XI48/XI60/XI6/MM1_d
+ N_XI48/XI60/NET21_XI48/XI60/XI6/MM1_g N_VSS_XI48/XI60/XI6/MM1_s
+ N_VSS_XI42/XI519/XI72/XI21/MM5_b N_18 L=1.8e-07 W=5e-07 AD=2.45e-13
+ AS=2.45e-13 PD=1.48e-06 PS=1.48e-06
mXI48/XI60/XI5/MM1 N_XI48/XI60/NET21_XI48/XI60/XI5/MM1_d
+ N_XI48/XI60/NET52_XI48/XI60/XI5/MM1_g N_VSS_XI48/XI60/XI5/MM1_s
+ N_VSS_XI42/XI519/XI72/XI21/MM5_b N_18 L=1.8e-07 W=5e-07 AD=2.45e-13
+ AS=2.45e-13 PD=1.48e-06 PS=1.48e-06
mXI48/XI61/XI5/MM1 N_XI48/XI61/NET21_XI48/XI61/XI5/MM1_d
+ N_XI48/XI61/NET52_XI48/XI61/XI5/MM1_g N_VSS_XI48/XI61/XI5/MM1_s
+ N_VSS_XI42/XI519/XI72/XI21/MM5_b N_18 L=1.8e-07 W=5e-07 AD=2.45e-13
+ AS=2.45e-13 PD=1.48e-06 PS=1.48e-06
mXI48/XI61/XI6/MM1 N_XI48/XI61/NET48_XI48/XI61/XI6/MM1_d
+ N_XI48/XI61/NET21_XI48/XI61/XI6/MM1_g N_VSS_XI48/XI61/XI6/MM1_s
+ N_VSS_XI42/XI519/XI72/XI21/MM5_b N_18 L=1.8e-07 W=5e-07 AD=2.45e-13
+ AS=2.45e-13 PD=1.48e-06 PS=1.48e-06
mXI48/XI62/XI6/MM1 N_XI48/XI62/NET48_XI48/XI62/XI6/MM1_d
+ N_XI48/XI62/NET21_XI48/XI62/XI6/MM1_g N_VSS_XI48/XI62/XI6/MM1_s
+ N_VSS_XI42/XI519/XI72/XI21/MM5_b N_18 L=1.8e-07 W=5e-07 AD=2.45e-13
+ AS=2.45e-13 PD=1.48e-06 PS=1.48e-06
mXI48/XI62/XI5/MM1 N_XI48/XI62/NET21_XI48/XI62/XI5/MM1_d
+ N_XI48/XI62/NET52_XI48/XI62/XI5/MM1_g N_VSS_XI48/XI62/XI5/MM1_s
+ N_VSS_XI42/XI519/XI72/XI21/MM5_b N_18 L=1.8e-07 W=5e-07 AD=2.45e-13
+ AS=2.45e-13 PD=1.48e-06 PS=1.48e-06
mXI48/XI63/XI5/MM1 N_XI48/XI63/NET21_XI48/XI63/XI5/MM1_d
+ N_XI48/XI63/NET52_XI48/XI63/XI5/MM1_g N_VSS_XI48/XI63/XI5/MM1_s
+ N_VSS_XI42/XI519/XI72/XI21/MM5_b N_18 L=1.8e-07 W=5e-07 AD=2.45e-13
+ AS=2.45e-13 PD=1.48e-06 PS=1.48e-06
mXI48/XI63/XI6/MM1 N_XI48/XI63/NET48_XI48/XI63/XI6/MM1_d
+ N_XI48/XI63/NET21_XI48/XI63/XI6/MM1_g N_VSS_XI48/XI63/XI6/MM1_s
+ N_VSS_XI42/XI519/XI72/XI21/MM5_b N_18 L=1.8e-07 W=5e-07 AD=2.45e-13
+ AS=2.45e-13 PD=1.48e-06 PS=1.48e-06
mXI32/XI9/XI13/MM1 N_XI32/XI9/NET21_XI32/XI9/XI13/MM1_d
+ N_XI32/XI9/NET52_XI32/XI9/XI13/MM1_g N_VSS_XI32/XI9/XI13/MM1_s
+ N_VSS_XI42/XI519/XI72/XI21/MM5_b N_18 L=1.8e-07 W=5e-07 AD=2.45e-13
+ AS=2.45e-13 PD=1.48e-06 PS=1.48e-06
mXI32/XI9/XI10/MM1 N_XI32/XI9/NET48_XI32/XI9/XI10/MM1_d
+ N_XI32/XI9/NET21_XI32/XI9/XI10/MM1_g N_VSS_XI32/XI9/XI10/MM1_s
+ N_VSS_XI42/XI519/XI72/XI21/MM5_b N_18 L=1.8e-07 W=5e-07 AD=2.45e-13
+ AS=2.45e-13 PD=1.48e-06 PS=1.48e-06
mXI32/XI8/XI13/MM1 N_XI32/XI8/NET21_XI32/XI8/XI13/MM1_d
+ N_XI32/XI8/NET52_XI32/XI8/XI13/MM1_g N_VSS_XI32/XI8/XI13/MM1_s
+ N_VSS_XI42/XI519/XI72/XI21/MM5_b N_18 L=1.8e-07 W=5e-07 AD=2.45e-13
+ AS=2.45e-13 PD=1.48e-06 PS=1.48e-06
mXI32/XI8/XI10/MM1 N_XI32/XI8/NET48_XI32/XI8/XI10/MM1_d
+ N_XI32/XI8/NET21_XI32/XI8/XI10/MM1_g N_VSS_XI32/XI8/XI10/MM1_s
+ N_VSS_XI42/XI519/XI72/XI21/MM5_b N_18 L=1.8e-07 W=5e-07 AD=2.45e-13
+ AS=2.45e-13 PD=1.48e-06 PS=1.48e-06
mXI32/XI7/XI13/MM1 N_XI32/XI7/NET21_XI32/XI7/XI13/MM1_d
+ N_XI32/XI7/NET52_XI32/XI7/XI13/MM1_g N_VSS_XI32/XI7/XI13/MM1_s
+ N_VSS_XI42/XI519/XI72/XI21/MM5_b N_18 L=1.8e-07 W=5e-07 AD=2.45e-13
+ AS=2.45e-13 PD=1.48e-06 PS=1.48e-06
mXI32/XI7/XI10/MM1 N_XI32/XI7/NET48_XI32/XI7/XI10/MM1_d
+ N_XI32/XI7/NET21_XI32/XI7/XI10/MM1_g N_VSS_XI32/XI7/XI10/MM1_s
+ N_VSS_XI42/XI519/XI72/XI21/MM5_b N_18 L=1.8e-07 W=5e-07 AD=2.45e-13
+ AS=2.45e-13 PD=1.48e-06 PS=1.48e-06
mXI42/XI519/XI72/XI20/MM5 N_XI42/XI519/NET113_XI42/XI519/XI72/XI20/MM5_d
+ N_NET128_XI42/XI519/XI72/XI20/MM5_g N_VSS_XI42/XI519/XI72/XI20/MM5_s
+ N_VSS_XI42/XI519/XI72/XI21/MM5_b N_18 L=1.8e-07 W=4.7e-07 AD=1.692e-13
+ AS=2.397e-13 PD=7.2e-07 PS=1.49e-06
mXI42/XI519/XI73/XI20/MM5 N_XI42/XI519/NET31_XI42/XI519/XI73/XI20/MM5_d
+ N_NET142_XI42/XI519/XI73/XI20/MM5_g N_VSS_XI42/XI519/XI73/XI20/MM5_s
+ N_VSS_XI42/XI519/XI72/XI21/MM5_b N_18 L=1.8e-07 W=4.7e-07 AD=1.692e-13
+ AS=2.397e-13 PD=7.2e-07 PS=1.49e-06
mXI48/XI74/XI3/MM1 N_NET136_XI48/XI74/XI3/MM1_d N_NET135_XI48/XI74/XI3/MM1_g
+ N_VSS_XI48/XI74/XI3/MM1_s N_VSS_XI42/XI519/XI72/XI21/MM5_b N_18 L=1.8e-07
+ W=5e-07 AD=2.55e-13 AS=2.85e-13 PD=1.52e-06 PS=1.64e-06
mXI48/XI73/XI3/MM1 N_NET138_XI48/XI73/XI3/MM1_d N_NET137_XI48/XI73/XI3/MM1_g
+ N_VSS_XI48/XI73/XI3/MM1_s N_VSS_XI42/XI519/XI72/XI21/MM5_b N_18 L=1.8e-07
+ W=5e-07 AD=2.55e-13 AS=2.85e-13 PD=1.52e-06 PS=1.64e-06
mXI48/XI72/XI3/MM1 N_NET140_XI48/XI72/XI3/MM1_d N_NET139_XI48/XI72/XI3/MM1_g
+ N_VSS_XI48/XI72/XI3/MM1_s N_VSS_XI42/XI519/XI72/XI21/MM5_b N_18 L=1.8e-07
+ W=5e-07 AD=2.55e-13 AS=2.85e-13 PD=1.52e-06 PS=1.64e-06
mXI42/XI519/XI72/XI20/MM4 N_XI42/XI519/NET113_XI42/XI519/XI72/XI20/MM4_d
+ N_NET129_XI42/XI519/XI72/XI20/MM4_g N_VSS_XI42/XI519/XI72/XI20/MM4_s
+ N_VSS_XI42/XI519/XI72/XI21/MM5_b N_18 L=1.8e-07 W=4.7e-07 AD=1.692e-13
+ AS=2.397e-13 PD=7.2e-07 PS=1.49e-06
mXI42/XI519/XI73/XI20/MM4 N_XI42/XI519/NET31_XI42/XI519/XI73/XI20/MM4_d
+ N_NET143_XI42/XI519/XI73/XI20/MM4_g N_VSS_XI42/XI519/XI73/XI20/MM4_s
+ N_VSS_XI42/XI519/XI72/XI21/MM5_b N_18 L=1.8e-07 W=4.7e-07 AD=1.692e-13
+ AS=2.397e-13 PD=7.2e-07 PS=1.49e-06
mXI56/MM1 N_NET90_XI56/MM1_d N_CLK_XI56/MM1_g N_VSS_XI56/MM1_s
+ N_VSS_XI42/XI519/XI72/XI21/MM5_b N_18 L=1.8e-07 W=5e-07 AD=2.45e-13
+ AS=2.45e-13 PD=1.48e-06 PS=1.48e-06
mXI58/XI164/XI0/MM1 N_XI58/XI164/NET10_XI58/XI164/XI0/MM1_d
+ N_CLK_XI58/XI164/XI0/MM1_g N_VSS_XI58/XI164/XI0/MM1_s
+ N_VSS_XI42/XI519/XI72/XI21/MM5_b N_18 L=1.8e-07 W=5e-07 AD=1.275e-13
+ AS=2.45e-13 PD=5.1e-07 PS=1.48e-06
mXI58/XI164/XI0/MM1@2 N_XI58/XI164/NET10_XI58/XI164/XI0/MM1@2_d
+ N_CLK_XI58/XI164/XI0/MM1@2_g N_VSS_XI58/XI164/XI0/MM1@2_s
+ N_VSS_XI42/XI519/XI72/XI21/MM5_b N_18 L=1.8e-07 W=5e-07 AD=1.275e-13
+ AS=2.45e-13 PD=5.1e-07 PS=1.48e-06
mXI58/XI164/XI1/MM1 N_NET069_XI58/XI164/XI1/MM1_d
+ N_XI58/XI164/NET10_XI58/XI164/XI1/MM1_g N_VSS_XI58/XI164/XI1/MM1_s
+ N_VSS_XI42/XI519/XI72/XI21/MM5_b N_18 L=1.8e-07 W=5e-07 AD=1.275e-13
+ AS=2.45e-13 PD=5.1e-07 PS=1.48e-06
mXI58/XI164/XI1/MM1@2 N_NET069_XI58/XI164/XI1/MM1@2_d
+ N_XI58/XI164/NET10_XI58/XI164/XI1/MM1@2_g N_VSS_XI58/XI164/XI1/MM1@2_s
+ N_VSS_XI42/XI519/XI72/XI21/MM5_b N_18 L=1.8e-07 W=5e-07 AD=1.275e-13
+ AS=2.45e-13 PD=5.1e-07 PS=1.48e-06
mXI58/XI162/XI0/MM1 N_XI58/XI162/NET8_XI58/XI162/XI0/MM1_d
+ N_NET069_XI58/XI162/XI0/MM1_g N_VSS_XI58/XI162/XI0/MM1_s
+ N_VSS_XI42/XI519/XI72/XI21/MM5_b N_18 L=1.8e-07 W=5e-07 AD=2.45e-13
+ AS=2.45e-13 PD=1.48e-06 PS=1.48e-06
mXI58/XI162/XI1/MM1 N_XI58/NET086_XI58/XI162/XI1/MM1_d
+ N_XI58/XI162/NET8_XI58/XI162/XI1/MM1_g N_VSS_XI58/XI162/XI1/MM1_s
+ N_VSS_XI42/XI519/XI72/XI21/MM5_b N_18 L=1.8e-07 W=5e-07 AD=2.45e-13
+ AS=2.45e-13 PD=1.48e-06 PS=1.48e-06
mXI58/XI86/XI0/MM1 N_XI58/XI86/NET8_XI58/XI86/XI0/MM1_d
+ N_XI58/NET086_XI58/XI86/XI0/MM1_g N_VSS_XI58/XI86/XI0/MM1_s
+ N_VSS_XI42/XI519/XI72/XI21/MM5_b N_18 L=1.8e-07 W=5e-07 AD=2.45e-13
+ AS=2.45e-13 PD=1.48e-06 PS=1.48e-06
mXI58/XI86/XI1/MM1 N_XI58/NET30_XI58/XI86/XI1/MM1_d
+ N_XI58/XI86/NET8_XI58/XI86/XI1/MM1_g N_VSS_XI58/XI86/XI1/MM1_s
+ N_VSS_XI42/XI519/XI72/XI21/MM5_b N_18 L=1.8e-07 W=5e-07 AD=2.45e-13
+ AS=2.45e-13 PD=1.48e-06 PS=1.48e-06
mXI58/XI99/XI0/MM1 N_XI58/XI99/NET8_XI58/XI99/XI0/MM1_d
+ N_XI58/NET30_XI58/XI99/XI0/MM1_g N_VSS_XI58/XI99/XI0/MM1_s
+ N_VSS_XI42/XI519/XI72/XI21/MM5_b N_18 L=1.8e-07 W=5e-07 AD=2.45e-13
+ AS=2.45e-13 PD=1.48e-06 PS=1.48e-06
mXI58/XI99/XI1/MM1 N_XI58/NET039_XI58/XI99/XI1/MM1_d
+ N_XI58/XI99/NET8_XI58/XI99/XI1/MM1_g N_VSS_XI58/XI99/XI1/MM1_s
+ N_VSS_XI42/XI519/XI72/XI21/MM5_b N_18 L=1.8e-07 W=5e-07 AD=2.45e-13
+ AS=2.45e-13 PD=1.48e-06 PS=1.48e-06
mXI58/XI149/XI0/MM1 N_XI58/XI149/NET8_XI58/XI149/XI0/MM1_d
+ N_XI58/NET039_XI58/XI149/XI0/MM1_g N_VSS_XI58/XI149/XI0/MM1_s
+ N_VSS_XI42/XI519/XI72/XI21/MM5_b N_18 L=1.8e-07 W=5e-07 AD=2.45e-13
+ AS=2.45e-13 PD=1.48e-06 PS=1.48e-06
mXI58/XI149/XI1/MM1 N_XI58/NET081_XI58/XI149/XI1/MM1_d
+ N_XI58/XI149/NET8_XI58/XI149/XI1/MM1_g N_VSS_XI58/XI149/XI1/MM1_s
+ N_VSS_XI42/XI519/XI72/XI21/MM5_b N_18 L=1.8e-07 W=5e-07 AD=2.45e-13
+ AS=2.45e-13 PD=1.48e-06 PS=1.48e-06
mXI58/XI101/XI0/MM1 N_XI58/XI101/NET8_XI58/XI101/XI0/MM1_d
+ N_XI58/NET081_XI58/XI101/XI0/MM1_g N_VSS_XI58/XI101/XI0/MM1_s
+ N_VSS_XI42/XI519/XI72/XI21/MM5_b N_18 L=1.8e-07 W=5e-07 AD=2.45e-13
+ AS=2.45e-13 PD=1.48e-06 PS=1.48e-06
mXI58/XI101/XI1/MM1 N_NET070_XI58/XI101/XI1/MM1_d
+ N_XI58/XI101/NET8_XI58/XI101/XI1/MM1_g N_VSS_XI58/XI101/XI1/MM1_s
+ N_VSS_XI42/XI519/XI72/XI21/MM5_b N_18 L=1.8e-07 W=5e-07 AD=2.45e-13
+ AS=2.45e-13 PD=1.48e-06 PS=1.48e-06
mXI58/XI179/XI0/MM1 N_XI58/XI179/NET10_XI58/XI179/XI0/MM1_d
+ N_NET070_XI58/XI179/XI0/MM1_g N_VSS_XI58/XI179/XI0/MM1_s
+ N_VSS_XI42/XI519/XI72/XI21/MM5_b N_18 L=1.65e-06 W=5e-07 AD=2.45e-13
+ AS=2.45e-13 PD=1.48e-06 PS=1.48e-06
mXI58/XI179/XI1/MM1 N_XI58/NET068_XI58/XI179/XI1/MM1_d
+ N_XI58/XI179/NET10_XI58/XI179/XI1/MM1_g N_VSS_XI58/XI179/XI1/MM1_s
+ N_VSS_XI42/XI519/XI72/XI21/MM5_b N_18 L=1.65e-06 W=5e-07 AD=2.45e-13
+ AS=2.45e-13 PD=1.48e-06 PS=1.48e-06
mXI58/XI181/XI0/MM1 N_XI58/XI181/NET10_XI58/XI181/XI0/MM1_d
+ N_XI58/NET068_XI58/XI181/XI0/MM1_g N_VSS_XI58/XI181/XI0/MM1_s
+ N_VSS_XI42/XI519/XI72/XI21/MM5_b N_18 L=1.65e-06 W=5e-07 AD=2.45e-13
+ AS=2.45e-13 PD=1.48e-06 PS=1.48e-06
mXI58/XI181/XI1/MM1 N_XI58/NET033_XI58/XI181/XI1/MM1_d
+ N_XI58/XI181/NET10_XI58/XI181/XI1/MM1_g N_VSS_XI58/XI181/XI1/MM1_s
+ N_VSS_XI42/XI519/XI72/XI21/MM5_b N_18 L=1.65e-06 W=5e-07 AD=2.45e-13
+ AS=2.45e-13 PD=1.48e-06 PS=1.48e-06
mXI58/XI182/XI0/MM1 N_XI58/XI182/NET8_XI58/XI182/XI0/MM1_d
+ N_XI58/NET033_XI58/XI182/XI0/MM1_g N_VSS_XI58/XI182/XI0/MM1_s
+ N_VSS_XI42/XI519/XI72/XI21/MM5_b N_18 L=1.8e-07 W=5e-07 AD=2.45e-13
+ AS=2.45e-13 PD=1.48e-06 PS=1.48e-06
mXI58/XI182/XI1/MM1 N_XI58/NET049_XI58/XI182/XI1/MM1_d
+ N_XI58/XI182/NET8_XI58/XI182/XI1/MM1_g N_VSS_XI58/XI182/XI1/MM1_s
+ N_VSS_XI42/XI519/XI72/XI21/MM5_b N_18 L=1.8e-07 W=5e-07 AD=2.45e-13
+ AS=2.45e-13 PD=1.48e-06 PS=1.48e-06
mXI58/XI183/XI0/MM1 N_XI58/XI183/NET8_XI58/XI183/XI0/MM1_d
+ N_XI58/NET049_XI58/XI183/XI0/MM1_g N_VSS_XI58/XI183/XI0/MM1_s
+ N_VSS_XI42/XI519/XI72/XI21/MM5_b N_18 L=1.8e-07 W=5e-07 AD=2.45e-13
+ AS=2.45e-13 PD=1.48e-06 PS=1.48e-06
mXI58/XI183/XI1/MM1 N_NET068_XI58/XI183/XI1/MM1_d
+ N_XI58/XI183/NET8_XI58/XI183/XI1/MM1_g N_VSS_XI58/XI183/XI1/MM1_s
+ N_VSS_XI42/XI519/XI72/XI21/MM5_b N_18 L=1.8e-07 W=5e-07 AD=2.45e-13
+ AS=2.45e-13 PD=1.48e-06 PS=1.48e-06
mXI48/XI66/MM6 N_XI48/XI66/NET44_XI48/XI66/MM6_d N_CLK_XI48/XI66/MM6_g
+ N_XI48/XI66/NET21_XI48/XI66/MM6_s N_VSS_XI42/XI519/XI72/XI21/MM5_b N_18
+ L=1.8e-07 W=5e-07 AD=2.45e-13 AS=2.45e-13 PD=1.48e-06 PS=1.48e-06
mXI48/XI66/MM7 N_XI48/XI66/NET059_XI48/XI66/MM7_d N_NET90_XI48/XI66/MM7_g
+ N_XI48/XI66/NET44_XI48/XI66/MM7_s N_VSS_XI42/XI519/XI72/XI21/MM5_b N_18
+ L=1.8e-07 W=5e-07 AD=2.45e-13 AS=2.45e-13 PD=1.48e-06 PS=1.48e-06
mXI48/XI65/MM6 N_XI48/XI65/NET44_XI48/XI65/MM6_d N_CLK_XI48/XI65/MM6_g
+ N_XI48/XI65/NET21_XI48/XI65/MM6_s N_VSS_XI42/XI519/XI72/XI21/MM5_b N_18
+ L=1.8e-07 W=5e-07 AD=2.45e-13 AS=2.45e-13 PD=1.48e-06 PS=1.48e-06
mXI48/XI65/MM7 N_XI48/XI65/NET059_XI48/XI65/MM7_d N_NET90_XI48/XI65/MM7_g
+ N_XI48/XI65/NET44_XI48/XI65/MM7_s N_VSS_XI42/XI519/XI72/XI21/MM5_b N_18
+ L=1.8e-07 W=5e-07 AD=2.45e-13 AS=2.45e-13 PD=1.48e-06 PS=1.48e-06
mXI48/XI64/MM6 N_XI48/XI64/NET44_XI48/XI64/MM6_d N_CLK_XI48/XI64/MM6_g
+ N_XI48/XI64/NET21_XI48/XI64/MM6_s N_VSS_XI42/XI519/XI72/XI21/MM5_b N_18
+ L=1.8e-07 W=5e-07 AD=2.45e-13 AS=2.45e-13 PD=1.48e-06 PS=1.48e-06
mXI48/XI64/MM7 N_XI48/XI64/NET059_XI48/XI64/MM7_d N_NET90_XI48/XI64/MM7_g
+ N_XI48/XI64/NET44_XI48/XI64/MM7_s N_VSS_XI42/XI519/XI72/XI21/MM5_b N_18
+ L=1.8e-07 W=5e-07 AD=2.45e-13 AS=2.45e-13 PD=1.48e-06 PS=1.48e-06
mXI48/XI60/MM7 N_XI48/XI60/NET059_XI48/XI60/MM7_d N_NET90_XI48/XI60/MM7_g
+ N_XI48/XI60/NET44_XI48/XI60/MM7_s N_VSS_XI42/XI519/XI72/XI21/MM5_b N_18
+ L=1.8e-07 W=5e-07 AD=2.45e-13 AS=2.45e-13 PD=1.48e-06 PS=1.48e-06
mXI48/XI60/MM6 N_XI48/XI60/NET44_XI48/XI60/MM6_d N_CLK_XI48/XI60/MM6_g
+ N_XI48/XI60/NET21_XI48/XI60/MM6_s N_VSS_XI42/XI519/XI72/XI21/MM5_b N_18
+ L=1.8e-07 W=5e-07 AD=2.45e-13 AS=2.45e-13 PD=1.48e-06 PS=1.48e-06
mXI48/XI61/MM6 N_XI48/XI61/NET44_XI48/XI61/MM6_d N_CLK_XI48/XI61/MM6_g
+ N_XI48/XI61/NET21_XI48/XI61/MM6_s N_VSS_XI42/XI519/XI72/XI21/MM5_b N_18
+ L=1.8e-07 W=5e-07 AD=2.45e-13 AS=2.45e-13 PD=1.48e-06 PS=1.48e-06
mXI48/XI61/MM7 N_XI48/XI61/NET059_XI48/XI61/MM7_d N_NET90_XI48/XI61/MM7_g
+ N_XI48/XI61/NET44_XI48/XI61/MM7_s N_VSS_XI42/XI519/XI72/XI21/MM5_b N_18
+ L=1.8e-07 W=5e-07 AD=2.45e-13 AS=2.45e-13 PD=1.48e-06 PS=1.48e-06
mXI48/XI62/MM7 N_XI48/XI62/NET059_XI48/XI62/MM7_d N_NET90_XI48/XI62/MM7_g
+ N_XI48/XI62/NET44_XI48/XI62/MM7_s N_VSS_XI42/XI519/XI72/XI21/MM5_b N_18
+ L=1.8e-07 W=5e-07 AD=2.45e-13 AS=2.45e-13 PD=1.48e-06 PS=1.48e-06
mXI48/XI62/MM6 N_XI48/XI62/NET44_XI48/XI62/MM6_d N_CLK_XI48/XI62/MM6_g
+ N_XI48/XI62/NET21_XI48/XI62/MM6_s N_VSS_XI42/XI519/XI72/XI21/MM5_b N_18
+ L=1.8e-07 W=5e-07 AD=2.45e-13 AS=2.45e-13 PD=1.48e-06 PS=1.48e-06
mXI48/XI63/MM6 N_XI48/XI63/NET44_XI48/XI63/MM6_d N_CLK_XI48/XI63/MM6_g
+ N_XI48/XI63/NET21_XI48/XI63/MM6_s N_VSS_XI42/XI519/XI72/XI21/MM5_b N_18
+ L=1.8e-07 W=5e-07 AD=2.45e-13 AS=2.45e-13 PD=1.48e-06 PS=1.48e-06
mXI48/XI63/MM7 N_XI48/XI63/NET059_XI48/XI63/MM7_d N_NET90_XI48/XI63/MM7_g
+ N_XI48/XI63/NET44_XI48/XI63/MM7_s N_VSS_XI42/XI519/XI72/XI21/MM5_b N_18
+ L=1.8e-07 W=5e-07 AD=2.45e-13 AS=2.45e-13 PD=1.48e-06 PS=1.48e-06
mXI32/XI9/MM6 N_XI32/XI9/NET44_XI32/XI9/MM6_d N_CLK_XI32/XI9/MM6_g
+ N_XI32/XI9/NET21_XI32/XI9/MM6_s N_VSS_XI42/XI519/XI72/XI21/MM5_b N_18
+ L=1.8e-07 W=5e-07 AD=2.45e-13 AS=2.45e-13 PD=1.48e-06 PS=1.48e-06
mXI32/XI9/MM7 N_NET434_XI32/XI9/MM7_d N_NET90_XI32/XI9/MM7_g
+ N_XI32/XI9/NET44_XI32/XI9/MM7_s N_VSS_XI42/XI519/XI72/XI21/MM5_b N_18
+ L=1.8e-07 W=5e-07 AD=2.45e-13 AS=2.45e-13 PD=1.48e-06 PS=1.48e-06
mXI32/XI8/MM6 N_XI32/XI8/NET44_XI32/XI8/MM6_d N_CLK_XI32/XI8/MM6_g
+ N_XI32/XI8/NET21_XI32/XI8/MM6_s N_VSS_XI42/XI519/XI72/XI21/MM5_b N_18
+ L=1.8e-07 W=5e-07 AD=2.45e-13 AS=2.45e-13 PD=1.48e-06 PS=1.48e-06
mXI32/XI8/MM7 N_NET435_XI32/XI8/MM7_d N_NET90_XI32/XI8/MM7_g
+ N_XI32/XI8/NET44_XI32/XI8/MM7_s N_VSS_XI42/XI519/XI72/XI21/MM5_b N_18
+ L=1.8e-07 W=5e-07 AD=2.45e-13 AS=2.45e-13 PD=1.48e-06 PS=1.48e-06
mXI32/XI7/MM6 N_XI32/XI7/NET44_XI32/XI7/MM6_d N_CLK_XI32/XI7/MM6_g
+ N_XI32/XI7/NET21_XI32/XI7/MM6_s N_VSS_XI42/XI519/XI72/XI21/MM5_b N_18
+ L=1.8e-07 W=5e-07 AD=2.45e-13 AS=2.45e-13 PD=1.48e-06 PS=1.48e-06
mXI32/XI7/MM7 N_NET436_XI32/XI7/MM7_d N_NET90_XI32/XI7/MM7_g
+ N_XI32/XI7/NET44_XI32/XI7/MM7_s N_VSS_XI42/XI519/XI72/XI21/MM5_b N_18
+ L=1.8e-07 W=5e-07 AD=2.45e-13 AS=2.45e-13 PD=1.48e-06 PS=1.48e-06
mXI42/XI519/XI72/XI19/MM5 N_XI42/XI519/NET112_XI42/XI519/XI72/XI19/MM5_d
+ N_NET127_XI42/XI519/XI72/XI19/MM5_g N_VSS_XI42/XI519/XI72/XI19/MM5_s
+ N_VSS_XI42/XI519/XI72/XI21/MM5_b N_18 L=1.8e-07 W=4.7e-07 AD=1.692e-13
+ AS=2.397e-13 PD=7.2e-07 PS=1.49e-06
mXI42/XI519/XI73/XI19/MM5 N_XI42/XI519/NET104_XI42/XI519/XI73/XI19/MM5_d
+ N_NET141_XI42/XI519/XI73/XI19/MM5_g N_VSS_XI42/XI519/XI73/XI19/MM5_s
+ N_VSS_XI42/XI519/XI72/XI21/MM5_b N_18 L=1.8e-07 W=4.7e-07 AD=1.692e-13
+ AS=2.397e-13 PD=7.2e-07 PS=1.49e-06
mXI48/XI66/XI7/MM1 N_XI48/NET0110_XI48/XI66/XI7/MM1_d
+ N_XI48/XI66/NET44_XI48/XI66/XI7/MM1_g N_VSS_XI48/XI66/XI7/MM1_s
+ N_VSS_XI42/XI519/XI72/XI21/MM5_b N_18 L=1.8e-07 W=5e-07 AD=2.45e-13
+ AS=2.45e-13 PD=1.48e-06 PS=1.48e-06
mXI48/XI66/XI8/MM1 N_XI48/XI66/NET059_XI48/XI66/XI8/MM1_d
+ N_XI48/NET0110_XI48/XI66/XI8/MM1_g N_VSS_XI48/XI66/XI8/MM1_s
+ N_VSS_XI42/XI519/XI72/XI21/MM5_b N_18 L=1.8e-07 W=5e-07 AD=2.45e-13
+ AS=2.45e-13 PD=1.48e-06 PS=1.48e-06
mXI48/XI65/XI7/MM1 N_XI48/NET098_XI48/XI65/XI7/MM1_d
+ N_XI48/XI65/NET44_XI48/XI65/XI7/MM1_g N_VSS_XI48/XI65/XI7/MM1_s
+ N_VSS_XI42/XI519/XI72/XI21/MM5_b N_18 L=1.8e-07 W=5e-07 AD=2.45e-13
+ AS=2.45e-13 PD=1.48e-06 PS=1.48e-06
mXI48/XI65/XI8/MM1 N_XI48/XI65/NET059_XI48/XI65/XI8/MM1_d
+ N_XI48/NET098_XI48/XI65/XI8/MM1_g N_VSS_XI48/XI65/XI8/MM1_s
+ N_VSS_XI42/XI519/XI72/XI21/MM5_b N_18 L=1.8e-07 W=5e-07 AD=2.45e-13
+ AS=2.45e-13 PD=1.48e-06 PS=1.48e-06
mXI48/XI64/XI7/MM1 N_XI48/NET0116_XI48/XI64/XI7/MM1_d
+ N_XI48/XI64/NET44_XI48/XI64/XI7/MM1_g N_VSS_XI48/XI64/XI7/MM1_s
+ N_VSS_XI42/XI519/XI72/XI21/MM5_b N_18 L=1.8e-07 W=5e-07 AD=2.45e-13
+ AS=2.45e-13 PD=1.48e-06 PS=1.48e-06
mXI48/XI64/XI8/MM1 N_XI48/XI64/NET059_XI48/XI64/XI8/MM1_d
+ N_XI48/NET0116_XI48/XI64/XI8/MM1_g N_VSS_XI48/XI64/XI8/MM1_s
+ N_VSS_XI42/XI519/XI72/XI21/MM5_b N_18 L=1.8e-07 W=5e-07 AD=2.45e-13
+ AS=2.45e-13 PD=1.48e-06 PS=1.48e-06
mXI48/XI60/XI8/MM1 N_XI48/XI60/NET059_XI48/XI60/XI8/MM1_d
+ N_XI48/NET0122_XI48/XI60/XI8/MM1_g N_VSS_XI48/XI60/XI8/MM1_s
+ N_VSS_XI42/XI519/XI72/XI21/MM5_b N_18 L=1.8e-07 W=5e-07 AD=2.45e-13
+ AS=2.45e-13 PD=1.48e-06 PS=1.48e-06
mXI48/XI60/XI7/MM1 N_XI48/NET0122_XI48/XI60/XI7/MM1_d
+ N_XI48/XI60/NET44_XI48/XI60/XI7/MM1_g N_VSS_XI48/XI60/XI7/MM1_s
+ N_VSS_XI42/XI519/XI72/XI21/MM5_b N_18 L=1.8e-07 W=5e-07 AD=2.45e-13
+ AS=2.45e-13 PD=1.48e-06 PS=1.48e-06
mXI48/XI61/XI7/MM1 N_XI48/NET0134_XI48/XI61/XI7/MM1_d
+ N_XI48/XI61/NET44_XI48/XI61/XI7/MM1_g N_VSS_XI48/XI61/XI7/MM1_s
+ N_VSS_XI42/XI519/XI72/XI21/MM5_b N_18 L=1.8e-07 W=5e-07 AD=2.45e-13
+ AS=2.45e-13 PD=1.48e-06 PS=1.48e-06
mXI48/XI61/XI8/MM1 N_XI48/XI61/NET059_XI48/XI61/XI8/MM1_d
+ N_XI48/NET0134_XI48/XI61/XI8/MM1_g N_VSS_XI48/XI61/XI8/MM1_s
+ N_VSS_XI42/XI519/XI72/XI21/MM5_b N_18 L=1.8e-07 W=5e-07 AD=2.45e-13
+ AS=2.45e-13 PD=1.48e-06 PS=1.48e-06
mXI48/XI62/XI8/MM1 N_XI48/XI62/NET059_XI48/XI62/XI8/MM1_d
+ N_XI48/NET0128_XI48/XI62/XI8/MM1_g N_VSS_XI48/XI62/XI8/MM1_s
+ N_VSS_XI42/XI519/XI72/XI21/MM5_b N_18 L=1.8e-07 W=5e-07 AD=2.45e-13
+ AS=2.45e-13 PD=1.48e-06 PS=1.48e-06
mXI48/XI62/XI7/MM1 N_XI48/NET0128_XI48/XI62/XI7/MM1_d
+ N_XI48/XI62/NET44_XI48/XI62/XI7/MM1_g N_VSS_XI48/XI62/XI7/MM1_s
+ N_VSS_XI42/XI519/XI72/XI21/MM5_b N_18 L=1.8e-07 W=5e-07 AD=2.45e-13
+ AS=2.45e-13 PD=1.48e-06 PS=1.48e-06
mXI48/XI63/XI7/MM1 N_XI48/NET0104_XI48/XI63/XI7/MM1_d
+ N_XI48/XI63/NET44_XI48/XI63/XI7/MM1_g N_VSS_XI48/XI63/XI7/MM1_s
+ N_VSS_XI42/XI519/XI72/XI21/MM5_b N_18 L=1.8e-07 W=5e-07 AD=2.45e-13
+ AS=2.45e-13 PD=1.48e-06 PS=1.48e-06
mXI48/XI63/XI8/MM1 N_XI48/XI63/NET059_XI48/XI63/XI8/MM1_d
+ N_XI48/NET0104_XI48/XI63/XI8/MM1_g N_VSS_XI48/XI63/XI8/MM1_s
+ N_VSS_XI42/XI519/XI72/XI21/MM5_b N_18 L=1.8e-07 W=5e-07 AD=2.45e-13
+ AS=2.45e-13 PD=1.48e-06 PS=1.48e-06
mXI32/XI9/XI12/MM1 N_NET437_XI32/XI9/XI12/MM1_d
+ N_XI32/XI9/NET44_XI32/XI9/XI12/MM1_g N_VSS_XI32/XI9/XI12/MM1_s
+ N_VSS_XI42/XI519/XI72/XI21/MM5_b N_18 L=1.8e-07 W=5e-07 AD=2.45e-13
+ AS=2.45e-13 PD=1.48e-06 PS=1.48e-06
mXI32/XI9/XI11/MM1 N_NET434_XI32/XI9/XI11/MM1_d N_NET437_XI32/XI9/XI11/MM1_g
+ N_VSS_XI32/XI9/XI11/MM1_s N_VSS_XI42/XI519/XI72/XI21/MM5_b N_18 L=1.8e-07
+ W=5e-07 AD=2.45e-13 AS=2.45e-13 PD=1.48e-06 PS=1.48e-06
mXI32/XI8/XI12/MM1 N_NET438_XI32/XI8/XI12/MM1_d
+ N_XI32/XI8/NET44_XI32/XI8/XI12/MM1_g N_VSS_XI32/XI8/XI12/MM1_s
+ N_VSS_XI42/XI519/XI72/XI21/MM5_b N_18 L=1.8e-07 W=5e-07 AD=2.45e-13
+ AS=2.45e-13 PD=1.48e-06 PS=1.48e-06
mXI32/XI8/XI11/MM1 N_NET435_XI32/XI8/XI11/MM1_d N_NET438_XI32/XI8/XI11/MM1_g
+ N_VSS_XI32/XI8/XI11/MM1_s N_VSS_XI42/XI519/XI72/XI21/MM5_b N_18 L=1.8e-07
+ W=5e-07 AD=2.45e-13 AS=2.45e-13 PD=1.48e-06 PS=1.48e-06
mXI32/XI7/XI12/MM1 N_NET439_XI32/XI7/XI12/MM1_d
+ N_XI32/XI7/NET44_XI32/XI7/XI12/MM1_g N_VSS_XI32/XI7/XI12/MM1_s
+ N_VSS_XI42/XI519/XI72/XI21/MM5_b N_18 L=1.8e-07 W=5e-07 AD=2.45e-13
+ AS=2.45e-13 PD=1.48e-06 PS=1.48e-06
mXI32/XI7/XI11/MM1 N_NET436_XI32/XI7/XI11/MM1_d N_NET439_XI32/XI7/XI11/MM1_g
+ N_VSS_XI32/XI7/XI11/MM1_s N_VSS_XI42/XI519/XI72/XI21/MM5_b N_18 L=1.8e-07
+ W=5e-07 AD=2.45e-13 AS=2.45e-13 PD=1.48e-06 PS=1.48e-06
mXI42/XI519/XI72/XI19/MM4 N_XI42/XI519/NET112_XI42/XI519/XI72/XI19/MM4_d
+ N_NET130_XI42/XI519/XI72/XI19/MM4_g N_VSS_XI42/XI519/XI72/XI19/MM4_s
+ N_VSS_XI42/XI519/XI72/XI21/MM5_b N_18 L=1.8e-07 W=4.7e-07 AD=1.692e-13
+ AS=2.397e-13 PD=7.2e-07 PS=1.49e-06
mXI42/XI519/XI73/XI19/MM4 N_XI42/XI519/NET104_XI42/XI519/XI73/XI19/MM4_d
+ N_NET126_XI42/XI519/XI73/XI19/MM4_g N_VSS_XI42/XI519/XI73/XI19/MM4_s
+ N_VSS_XI42/XI519/XI72/XI21/MM5_b N_18 L=1.8e-07 W=4.7e-07 AD=1.692e-13
+ AS=2.397e-13 PD=7.2e-07 PS=1.49e-06
mXI30/XI67/MM5 N_XI30/XI67/NET7_XI30/XI67/MM5_d N_NET437_XI30/XI67/MM5_g
+ N_VSS_XI30/XI67/MM5_s N_VSS_XI42/XI519/XI72/XI21/MM5_b N_18 L=1.8e-07
+ W=4.7e-07 AD=1.1985e-13 AS=2.303e-13 PD=5.1e-07 PS=1.45e-06
mXI30/XI67/MM4 N_XI30/XI67/NET11_XI30/XI67/MM4_d N_NET438_XI30/XI67/MM4_g
+ N_XI30/XI67/NET7_XI30/XI67/MM4_s N_VSS_XI42/XI519/XI72/XI21/MM5_b N_18
+ L=1.8e-07 W=4.7e-07 AD=1.1985e-13 AS=1.1985e-13 PD=5.1e-07 PS=5.1e-07
mXI30/XI67/MM3 N_NET470_XI30/XI67/MM3_d N_NET439_XI30/XI67/MM3_g
+ N_XI30/XI67/NET11_XI30/XI67/MM3_s N_VSS_XI42/XI519/XI72/XI21/MM5_b N_18
+ L=1.8e-07 W=4.7e-07 AD=2.303e-13 AS=1.1985e-13 PD=1.45e-06 PS=5.1e-07
mXI30/XI69/MM5 N_XI30/XI69/NET7_XI30/XI69/MM5_d N_NET437_XI30/XI69/MM5_g
+ N_VSS_XI30/XI69/MM5_s N_VSS_XI42/XI519/XI72/XI21/MM5_b N_18 L=1.8e-07
+ W=4.7e-07 AD=1.1985e-13 AS=2.303e-13 PD=5.1e-07 PS=1.45e-06
mXI30/XI69/MM4 N_XI30/XI69/NET11_XI30/XI69/MM4_d N_NET435_XI30/XI69/MM4_g
+ N_XI30/XI69/NET7_XI30/XI69/MM4_s N_VSS_XI42/XI519/XI72/XI21/MM5_b N_18
+ L=1.8e-07 W=4.7e-07 AD=1.1985e-13 AS=1.1985e-13 PD=5.1e-07 PS=5.1e-07
mXI30/XI69/MM3 N_NET468_XI30/XI69/MM3_d N_NET439_XI30/XI69/MM3_g
+ N_XI30/XI69/NET11_XI30/XI69/MM3_s N_VSS_XI42/XI519/XI72/XI21/MM5_b N_18
+ L=1.8e-07 W=4.7e-07 AD=2.303e-13 AS=1.1985e-13 PD=1.45e-06 PS=5.1e-07
mXI30/XI71/MM5 N_XI30/XI71/NET7_XI30/XI71/MM5_d N_NET437_XI30/XI71/MM5_g
+ N_VSS_XI30/XI71/MM5_s N_VSS_XI42/XI519/XI72/XI21/MM5_b N_18 L=1.8e-07
+ W=4.7e-07 AD=1.1985e-13 AS=2.303e-13 PD=5.1e-07 PS=1.45e-06
mXI30/XI71/MM4 N_XI30/XI71/NET11_XI30/XI71/MM4_d N_NET438_XI30/XI71/MM4_g
+ N_XI30/XI71/NET7_XI30/XI71/MM4_s N_VSS_XI42/XI519/XI72/XI21/MM5_b N_18
+ L=1.8e-07 W=4.7e-07 AD=1.1985e-13 AS=1.1985e-13 PD=5.1e-07 PS=5.1e-07
mXI30/XI71/MM3 N_NET466_XI30/XI71/MM3_d N_NET436_XI30/XI71/MM3_g
+ N_XI30/XI71/NET11_XI30/XI71/MM3_s N_VSS_XI42/XI519/XI72/XI21/MM5_b N_18
+ L=1.8e-07 W=4.7e-07 AD=2.303e-13 AS=1.1985e-13 PD=1.45e-06 PS=5.1e-07
mXI30/XI73/MM5 N_XI30/XI73/NET7_XI30/XI73/MM5_d N_NET437_XI30/XI73/MM5_g
+ N_VSS_XI30/XI73/MM5_s N_VSS_XI42/XI519/XI72/XI21/MM5_b N_18 L=1.8e-07
+ W=4.7e-07 AD=1.1985e-13 AS=2.303e-13 PD=5.1e-07 PS=1.45e-06
mXI30/XI73/MM4 N_XI30/XI73/NET11_XI30/XI73/MM4_d N_NET435_XI30/XI73/MM4_g
+ N_XI30/XI73/NET7_XI30/XI73/MM4_s N_VSS_XI42/XI519/XI72/XI21/MM5_b N_18
+ L=1.8e-07 W=4.7e-07 AD=1.1985e-13 AS=1.1985e-13 PD=5.1e-07 PS=5.1e-07
mXI30/XI73/MM3 N_NET464_XI30/XI73/MM3_d N_NET436_XI30/XI73/MM3_g
+ N_XI30/XI73/NET11_XI30/XI73/MM3_s N_VSS_XI42/XI519/XI72/XI21/MM5_b N_18
+ L=1.8e-07 W=4.7e-07 AD=2.303e-13 AS=1.1985e-13 PD=1.45e-06 PS=5.1e-07
mXI30/XI68/MM5 N_XI30/XI68/NET7_XI30/XI68/MM5_d N_NET434_XI30/XI68/MM5_g
+ N_VSS_XI30/XI68/MM5_s N_VSS_XI42/XI519/XI72/XI21/MM5_b N_18 L=1.8e-07
+ W=4.7e-07 AD=1.1985e-13 AS=2.303e-13 PD=5.1e-07 PS=1.45e-06
mXI30/XI68/MM4 N_XI30/XI68/NET11_XI30/XI68/MM4_d N_NET438_XI30/XI68/MM4_g
+ N_XI30/XI68/NET7_XI30/XI68/MM4_s N_VSS_XI42/XI519/XI72/XI21/MM5_b N_18
+ L=1.8e-07 W=4.7e-07 AD=1.1985e-13 AS=1.1985e-13 PD=5.1e-07 PS=5.1e-07
mXI30/XI68/MM3 N_NET469_XI30/XI68/MM3_d N_NET439_XI30/XI68/MM3_g
+ N_XI30/XI68/NET11_XI30/XI68/MM3_s N_VSS_XI42/XI519/XI72/XI21/MM5_b N_18