* File: ROM_TEST6.pex.spi.pex
* Created: Mon Jan 16 14:53:16 2023
* Program "Calibre xRC"
* Version "v2016.4_15.11"
* Nominal Temperature: 27C
* Circuit Temperature: 27C
* 
.subckt PM_ROM_TEST6%NET0133 32 37 44 49 52 57 60 65 68 73 76 81 84 89 92 97 100
+ 105
c0 157 0 0.843184f
c1 133 0 0.425171f
c2 129 0 2.23278f
c3 103 0 0.146618f
c4 102 0 0.0774668f
c5 101 0 0.0811068f
c6 98 0 0.0618798f
c7 95 0 0.139347f
c8 94 0 0.0774668f
c9 93 0 0.0811068f
c10 90 0 0.0618798f
c11 87 0 0.139347f
c12 86 0 0.0774668f
c13 85 0 0.0811068f
c14 82 0 0.0618798f
c15 79 0 0.139347f
c16 78 0 0.0774668f
c17 77 0 0.0811068f
c18 74 0 0.0618798f
c19 71 0 0.139347f
c20 70 0 0.0774668f
c21 69 0 0.0811068f
c22 66 0 0.0618798f
c23 63 0 0.139347f
c24 62 0 0.0774668f
c25 61 0 0.0811068f
c26 58 0 0.0618798f
c27 55 0 0.139347f
c28 54 0 0.0774668f
c29 53 0 0.0811068f
c30 50 0 0.0618798f
c31 47 0 0.139347f
c32 46 0 0.081776f
c33 45 0 0.0812353f
c34 42 0 0.0682465f
c35 27 0 0.0187437f
c36 26 0 0.0766196f
c37 23 0 0.111785f
c38 20 0 0.0630271f
c39 19 0 0.0281008f
c40 13 0 0.118788f
c41 12 0 0.018332f
c42 10 0 0.00739892f
c43 8 0 0.0964104f
c44 5 0 0.0674116f
r45 128 129 6.6276
r46 126 129 0.654348
r47 125 126 6.6276
r48 123 126 0.654348
r49 122 123 6.6276
r50 120 123 0.654348
r51 119 120 6.6276
r52 117 120 0.654348
r53 116 117 6.6276
r54 114 117 0.654348
r55 113 114 6.6276
r56 111 114 0.654348
r57 110 111 6.6276
r58 108 111 0.654348
r59 107 108 6.6276
r60 103 128 4.03667
r61 103 105 16.75
r62 101 128 2.41977
r63 101 102 9.76596
r64 98 102 6.45644
r65 98 100 16.75
r66 95 125 4.03667
r67 95 97 16.75
r68 93 125 2.41977
r69 93 94 9.76596
r70 90 94 6.45644
r71 90 92 16.75
r72 87 122 4.03667
r73 87 89 16.75
r74 85 122 2.41977
r75 85 86 9.76596
r76 82 86 6.45644
r77 82 84 16.75
r78 79 119 4.03667
r79 79 81 16.75
r80 77 119 2.41977
r81 77 78 9.76596
r82 74 78 6.45644
r83 74 76 16.75
r84 71 116 4.03667
r85 71 73 16.75
r86 69 116 2.41977
r87 69 70 9.76596
r88 66 70 6.45644
r89 66 68 16.75
r90 63 113 4.03667
r91 63 65 16.75
r92 61 113 2.41977
r93 61 62 9.76596
r94 58 62 6.45644
r95 58 60 16.75
r96 55 110 4.03667
r97 55 57 16.75
r98 53 110 2.41977
r99 53 54 9.76596
r100 50 54 6.45644
r101 50 52 16.75
r102 47 107 4.03667
r103 47 49 16.75
r104 45 107 2.41977
r105 45 46 9.76596
r106 42 46 6.45644
r107 42 44 16.75
r108 39 40 16.3327
r109 37 39 4.608
r110 35 40 0.449615
r111 35 133 0.126538
r112 34 35 5.44423
r113 32 34 1.24541
r114 27 157 8
r115 26 30 8
r116 26 27 8
r117 23 133 8
r118 20 154 8
r119 19 23 8
r120 19 20 8
r121 13 154 0.0216667
r122 12 157 4.2471
r123 12 13 0.0386245
r124 10 108 0.435217
r125 8 30 0.1222
r126 7 8 4
r127 5 10 0.035285
r128 5 7 0.028
.ends

.subckt PM_ROM_TEST6%NET436 69 74 79 84 91 93 97 99 103 105 109 111
c0 140 0 0.182722f
c1 135 0 0.105406f
c2 131 0 0.0880786f
c3 129 0 0.130725f
c4 125 0 0.0909088f
c5 123 0 0.129399f
c6 119 0 0.0908575f
c7 117 0 0.129625f
c8 113 0 0.0909088f
c9 111 0 0.357561f
c10 105 0 0.394116f
c11 99 0 0.373516f
c12 93 0 0.373452f
c13 87 0 0.116323f
c14 82 0 0.142552f
c15 72 0 0.339422f
c16 67 0 12.9682f
c17 66 0 0.373829f
c18 63 0 0.0689957f
c19 59 0 0.12735f
c20 58 0 0.243822f
c21 51 0 0.139028f
c22 50 0 0.313185f
c23 43 0 0.139239f
c24 42 0 0.312486f
c25 39 0 3.73656f
c26 35 0 0.158796f
c27 34 0 0.311963f
c28 21 0 0.0114802f
c29 20 0 0.472427f
c30 18 0 0.0529517f
c31 15 0 0.0494318f
c32 11 0 0.164161f
r33 134 135 13.2552
r34 131 134 2.7766
r35 128 129 13.2552
r36 125 128 2.7766
r37 122 123 13.2552
r38 119 122 2.7766
r39 116 117 13.2552
r40 113 116 2.7766
r41 109 111 73.5
r42 107 131 4.73303
r43 107 109 64
r44 103 105 73.5
r45 101 125 4.73303
r46 101 103 64
r47 97 99 73.5
r48 95 119 4.73303
r49 95 97 64
r50 91 93 73.5
r51 89 113 4.73303
r52 89 91 64
r53 86 87 16.3327
r54 84 86 4.572
r55 81 82 16.3327
r56 79 81 4.608
r57 76 140 5.44423
r58 74 76 1.23568
r59 71 72 8.16635
r60 69 71 1.536
r61 66 67 8
r62 63 140 8
r63 62 66 0.309833
r64 62 63 8
r65 59 135 8
r66 58 59 8
r67 54 58 0.5057
r68 54 55 8
r69 51 123 8
r70 50 51 8
r71 46 50 0.5057
r72 46 47 8
r73 43 117 8
r74 42 43 8
r75 39 47 0.7644
r76 38 42 0.5057
r77 38 39 8
r78 35 129 8
r79 34 35 8
r80 31 55 0.7644
r81 31 47 2.2932
r82 30 34 0.5057
r83 30 31 8
r84 23 67 16.2058
r85 22 39 3.38
r86 21 22 0.0363174
r87 20 23 0.0363174
r88 20 21 0.754
r89 17 140 0.256667
r90 17 18 0.0277169
r91 16 87 0.125641
r92 16 18 0.0277169
r93 14 72 0.381013
r94 14 15 0.0274199
r95 13 82 0.124051
r96 13 15 0.0274199
r97 12 15 0.0096319
r98 11 18 0.00936577
r99 11 12 0.21
.ends

.subckt PM_ROM_TEST6%NET435 69 74 79 84 91 93 97 99 103 105 109 111
c0 127 0 0.112321f
c1 123 0 0.150767f
c2 119 0 0.150767f
c3 115 0 0.150769f
c4 111 0 0.407986f
c5 107 0 0.098402f
c6 105 0 0.415016f
c7 101 0 0.100454f
c8 99 0 0.415256f
c9 95 0 0.100454f
c10 93 0 0.40955f
c11 89 0 0.100433f
c12 87 0 0.116227f
c13 82 0 0.140358f
c14 77 0 0.185823f
c15 72 0 0.340022f
c16 67 0 20.9979f
c17 66 0 0.384757f
c18 63 0 0.0710349f
c19 59 0 0.164353f
c20 58 0 0.350038f
c21 51 0 0.162856f
c22 50 0 0.353878f
c23 43 0 0.165662f
c24 42 0 0.348202f
c25 35 0 0.165679f
c26 34 0 0.349121f
c27 31 0 6.5152f
c28 21 0 0.0815123f
c29 20 0 0.713137f
c30 18 0 0.0537853f
c31 15 0 0.0494318f
c32 11 0 0.164044f
r33 126 127 13.2552
r34 122 123 13.2552
r35 118 119 13.2552
r36 114 115 13.2552
r37 109 111 73.5
r38 107 126 8.05107
r39 107 109 64
r40 103 105 73.5
r41 101 122 8.05107
r42 101 103 64
r43 97 99 73.5
r44 95 118 8.05107
r45 95 97 64
r46 91 93 73.5
r47 89 114 8.05107
r48 89 91 64
r49 86 87 16.3327
r50 84 86 4.572
r51 81 82 16.3327
r52 79 81 4.608
r53 76 77 5.44423
r54 74 76 1.23568
r55 71 72 8.16635
r56 69 71 1.536
r57 66 67 8
r58 63 77 8
r59 62 66 0.385667
r60 62 63 8
r61 59 123 8
r62 58 59 8
r63 54 58 0.3705
r64 54 55 8
r65 51 127 8
r66 50 51 8
r67 47 55 1.5288
r68 46 50 0.3705
r69 46 47 8
r70 43 119 8
r71 42 43 8
r72 39 55 1.5288
r73 38 42 0.3705
r74 38 39 8
r75 35 115 8
r76 34 35 8
r77 31 39 1.5288
r78 30 34 0.3705
r79 30 31 8
r80 23 67 19.0697
r81 22 31 2.2633
r82 21 22 0.0363174
r83 20 23 0.0363174
r84 20 21 0.754
r85 17 77 0.259359
r86 17 18 0.0277169
r87 16 87 0.125641
r88 16 18 0.0277169
r89 14 72 0.381013
r90 14 15 0.0274199
r91 13 82 0.124051
r92 13 15 0.0274199
r93 12 15 0.0096319
r94 11 18 0.00936577
r95 11 12 0.21
.ends

.subckt PM_ROM_TEST6%NET434 69 74 79 84 91 93 97 99 103 105 109 111
c0 140 0 0.185983f
c1 133 0 0.131252f
c2 132 0 0.0909397f
c3 127 0 0.110565f
c4 126 0 0.0906956f
c5 121 0 0.129625f
c6 120 0 0.0909088f
c7 115 0 0.1294f
c8 114 0 0.0908543f
c9 111 0 0.373909f
c10 105 0 0.36275f
c11 99 0 0.379206f
c12 93 0 0.376762f
c13 87 0 0.116227f
c14 82 0 0.140358f
c15 72 0 0.340163f
c16 67 0 14.9221f
c17 66 0 0.39524f
c18 63 0 0.0706559f
c19 59 0 0.13963f
c20 58 0 0.304194f
c21 55 0 4.19207f
c22 51 0 0.141396f
c23 50 0 0.305644f
c24 43 0 0.141183f
c25 42 0 0.305214f
c26 35 0 0.14012f
c27 34 0 0.3088f
c28 21 0 0.0815123f
c29 20 0 0.439462f
c30 18 0 0.0537853f
c31 15 0 0.0494318f
c32 11 0 0.164044f
r33 132 135 2.7766
r34 132 133 13.2552
r35 126 129 2.7766
r36 126 127 13.2552
r37 120 123 2.7766
r38 120 121 13.2552
r39 114 117 2.7766
r40 114 115 13.2552
r41 109 111 73.5
r42 107 135 4.73303
r43 107 109 63.5
r44 103 105 73.5
r45 101 129 4.73303
r46 101 103 64
r47 97 99 73.5
r48 95 123 4.73303
r49 95 97 64
r50 91 93 73.5
r51 89 117 4.73303
r52 89 91 64
r53 86 87 16.3327
r54 84 86 4.572
r55 81 82 16.3327
r56 79 81 4.608
r57 76 140 5.44423
r58 74 76 1.23568
r59 71 72 8.16635
r60 69 71 1.536
r61 66 67 8
r62 63 140 8
r63 62 66 0.460778
r64 62 63 8
r65 59 133 8
r66 58 59 8
r67 54 58 0.2379
r68 54 55 8
r69 51 121 8
r70 50 51 8
r71 46 50 0.2353
r72 46 47 8
r73 43 115 8
r74 42 43 8
r75 39 47 0.7644
r76 39 55 0.7644
r77 38 42 0.2353
r78 38 39 8
r79 35 127 8
r80 34 35 8
r81 31 47 0.7644
r82 30 34 0.2353
r83 30 31 8
r84 23 67 21.944
r85 22 55 4.2042
r86 21 22 0.0363174
r87 20 23 0.0363174
r88 20 21 0.754
r89 17 140 0.259359
r90 17 18 0.0277169
r91 16 87 0.125641
r92 16 18 0.0277169
r93 14 72 0.381013
r94 14 15 0.0274199
r95 13 82 0.124051
r96 13 15 0.0274199
r97 12 15 0.0096319
r98 11 18 0.00936577
r99 11 12 0.21
.ends

.subckt PM_ROM_TEST6%XI42/XI519/NET31 73 78 79 85 87 91 93 97 99 103 105
c0 149 0 0.0308999f
c1 144 0 0.12767f
c2 139 0 0.12767f
c3 134 0 0.12767f
c4 129 0 0.125781f
c5 105 0 0.421506f
c6 101 0 0.0860977f
c7 99 0 0.409063f
c8 95 0 0.0860977f
c9 93 0 0.420182f
c10 89 0 0.0860977f
c11 87 0 0.41137f
c12 83 0 0.0860966f
c13 82 0 0.160045f
c14 78 0 0.00372332f
c15 76 0 0.149932f
c16 75 0 0.00131467f
c17 71 0 0.141892f
c18 70 0 0.0155618f
c19 67 0 0.162457f
c20 66 0 0.431175f
c21 63 0 14.0003f
c22 59 0 0.162732f
c23 58 0 0.458563f
c24 51 0 0.162462f
c25 50 0 0.44225f
c26 47 0 7.495f
c27 43 0 0.162456f
c28 42 0 0.441544f
c29 39 0 3.0697f
c30 35 0 7.20413f
c31 34 0 1.44228f
c32 32 0 0.0436769f
c33 31 0 0.0435581f
c34 22 0 0.0215816f
c35 20 0 0.0723278f
c36 14 0 0.0472058f
c37 13 0 0.129093f
c38 12 0 0.0264131f
r39 120 144 13.2552
r40 116 139 13.2552
r41 112 134 13.2552
r42 108 129 13.2552
r43 103 105 95
r44 101 120 8.05107
r45 101 103 62.75
r46 97 99 95
r47 95 116 8.05107
r48 95 97 62.75
r49 91 93 95
r50 89 112 8.05107
r51 89 91 62.75
r52 85 87 95
r53 83 108 8.05107
r54 83 85 62.75
r55 81 82 16.3327
r56 79 81 8.63617
r57 78 81 5.15106
r58 76 149 0.0361833
r59 75 76 16.3327
r60 73 75 5.18936
r61 70 71 8
r62 67 144 8
r63 66 67 8
r64 62 66 0.9113
r65 62 63 8
r66 59 139 8
r67 58 59 8
r68 55 63 13.2197
r69 54 58 0.9113
r70 54 55 8
r71 51 134 8
r72 50 51 8
r73 46 50 0.9113
r74 46 47 8
r75 43 129 8
r76 42 43 8
r77 39 47 12.7777
r78 38 42 0.9113
r79 38 39 8
r80 35 55 5.681
r81 35 47 6.5715
r82 34 35 8
r83 32 34 1.89826
r84 31 32 0.0363174
r85 30 70 0.0452398
r86 30 31 0.2054
r87 23 149 0.0501235
r88 20 23 0.0348774
r89 20 22 0.0348774
r90 20 71 8
r91 15 22 0.0380247
r92 13 15 0.042029
r93 13 14 0.1232
r94 12 14 0.0391994
r95 11 82 0.0533364
r96 11 12 0.0730435
.ends

.subckt PM_ROM_TEST6%XI42/XI519/NET103 75 80 81 87 89 93 95 99 101 105 107
c0 151 0 0.0347941f
c1 146 0 0.1273f
c2 141 0 0.129882f
c3 136 0 0.127679f
c4 131 0 0.129882f
c5 107 0 0.422459f
c6 103 0 0.0860977f
c7 101 0 0.409496f
c8 97 0 0.0860977f
c9 95 0 0.414809f
c10 91 0 0.0861389f
c11 89 0 0.412196f
c12 85 0 0.0860977f
c13 84 0 0.16788f
c14 78 0 0.104808f
c15 77 0 2.60917e-19
c16 73 0 0.157956f
c17 72 0 0.0449619f
c18 69 0 0.158108f
c19 68 0 0.0523494f
c20 65 0 0.116678f
c21 61 0 0.0523593f
c22 59 0 0.155036f
c23 58 0 0.370927f
c24 55 0 14.3472f
c25 51 0 10.921f
c26 48 0 0.361896f
c27 46 0 0.162457f
c28 45 0 0.389184f
c29 42 0 12.5467f
c30 38 0 9.21992f
c31 35 0 0.3758f
c32 32 0 0.234236f
c33 22 0 0.0223939f
c34 20 0 0.0652329f
c35 14 0 0.0470573f
c36 13 0 0.129007f
c37 12 0 0.0262465f
r38 122 146 13.2552
r39 118 141 13.2552
r40 114 136 13.2552
r41 110 131 13.2552
r42 105 107 95
r43 103 122 8.05107
r44 103 105 62.75
r45 99 101 95
r46 97 118 8.05107
r47 97 99 62.75
r48 93 95 95
r49 91 114 8.05107
r50 91 93 62.75
r51 87 89 95
r52 85 110 8.05107
r53 85 87 62.75
r54 83 84 16.3327
r55 81 83 8.63617
r56 80 83 5.15106
r57 78 151 0.0361833
r58 77 78 16.3327
r59 75 77 5.18936
r60 73 141 8
r61 72 73 8
r62 69 131 8
r63 68 69 8
r64 64 65 8
r65 61 64 0.0144444
r66 59 146 8
r67 58 59 8
r68 54 58 0.7761
r69 54 55 8
r70 51 55 13.2197
r71 50 51 8
r72 48 72 0.0332691
r73 48 50 0.74204
r74 46 136 8
r75 45 46 8
r76 41 45 0.7761
r77 41 42 8
r78 38 42 12.3591
r79 37 38 8
r80 35 68 0.0332691
r81 35 37 0.74204
r82 33 51 12.116
r83 33 42 1.5366
r84 32 33 8
r85 30 61 0.0222572
r86 30 32 0.44746
r87 23 151 0.0501235
r88 20 23 0.0348774
r89 20 22 0.0348774
r90 20 65 8
r91 15 22 0.0380247
r92 13 15 0.042029
r93 13 14 0.1232
r94 12 14 0.0391994
r95 11 84 0.0533364
r96 11 12 0.0730435
.ends

.subckt PM_ROM_TEST6%XI42/XI519/NET113 73 78 79 85 87 91 93 97 99 103 105
c0 153 0 0.0308999f
c1 148 0 0.0990814f
c2 143 0 0.0990814f
c3 138 0 0.0990814f
c4 133 0 0.0990814f
c5 126 0 0.0838292f
c6 121 0 0.0838292f
c7 116 0 0.0838292f
c8 111 0 0.0838292f
c9 105 0 0.418656f
c10 99 0 0.423685f
c11 93 0 0.420713f
c12 87 0 0.426621f
c13 82 0 0.160075f
c14 78 0 0.00374351f
c15 76 0 0.149932f
c16 75 0 0.00131467f
c17 71 0 0.141836f
c18 70 0 0.0155617f
c19 67 0 0.159836f
c20 66 0 0.326195f
c21 63 0 27.0275f
c22 59 0 0.15984f
c23 58 0 0.326752f
c24 51 0 0.159836f
c25 50 0 0.326867f
c26 47 0 5.16431f
c27 43 0 0.159952f
c28 42 0 0.324947f
c29 39 0 14.9551f
c30 34 0 1.70086f
c31 32 0 0.0436769f
c32 31 0 0.0435581f
c33 22 0 0.0215816f
c34 20 0 0.0723278f
c35 14 0 0.0472058f
c36 13 0 0.129092f
c37 12 0 0.0264131f
r38 123 126 8.05107
r39 123 148 13.2552
r40 118 121 8.05107
r41 118 143 13.2552
r42 113 116 8.05107
r43 113 138 13.2552
r44 108 111 8.05107
r45 108 133 13.2552
r46 103 105 95
r47 103 126 62.75
r48 97 99 95
r49 97 121 62.75
r50 91 93 95
r51 91 116 62.75
r52 85 87 95
r53 85 111 62.75
r54 81 82 16.3327
r55 79 81 8.63617
r56 78 81 5.15106
r57 76 153 0.0361833
r58 75 76 16.3327
r59 73 75 5.18936
r60 70 71 8
r61 67 148 8
r62 66 67 8
r63 62 66 0.6409
r64 62 63 8
r65 59 143 8
r66 58 59 8
r67 55 63 1.6042
r68 54 58 0.6409
r69 54 55 8
r70 51 138 8
r71 50 51 8
r72 47 55 3.1083
r73 46 50 0.6409
r74 46 47 8
r75 43 133 8
r76 42 43 8
r77 38 42 0.6409
r78 38 39 8
r79 35 47 1.0309
r80 35 39 2.5922
r81 34 35 8
r82 32 34 2.16866
r83 31 32 0.0363174
r84 30 70 0.0452398
r85 30 31 0.2054
r86 23 153 0.0501235
r87 20 23 0.0348774
r88 20 22 0.0348774
r89 20 71 8
r90 15 22 0.0380247
r91 13 15 0.042029
r92 13 14 0.1232
r93 12 14 0.0391994
r94 11 82 0.0533364
r95 11 12 0.0730435
.ends

.subckt PM_ROM_TEST6%XI42/XI519/NET111 74 79 80 86 88 92 94 98 100 104 106
c0 154 0 0.0348199f
c1 149 0 0.103131f
c2 144 0 0.0990814f
c3 139 0 0.0990814f
c4 134 0 0.0990814f
c5 127 0 0.0838292f
c6 122 0 0.0838292f
c7 117 0 0.0838292f
c8 112 0 0.0838292f
c9 106 0 0.414584f
c10 100 0 0.417082f
c11 94 0 0.413528f
c12 88 0 0.415596f
c13 83 0 0.16788f
c14 77 0 0.105134f
c15 76 0 2.60917e-19
c16 72 0 0.19256f
c17 71 0 0.0449326f
c18 68 0 0.116678f
c19 64 0 0.0524392f
c20 59 0 0.241433f
c21 57 0 0.159837f
c22 56 0 0.261872f
c23 49 0 0.160112f
c24 48 0 0.270043f
c25 45 0 9.61775f
c26 41 0 0.159837f
c27 40 0 0.259787f
c28 37 0 22.7774f
c29 33 0 14.6748f
c30 32 0 0.386915f
c31 22 0 0.0223939f
c32 20 0 0.0652329f
c33 14 0 0.0470573f
c34 13 0 0.129007f
c35 12 0 0.0262465f
r36 124 127 8.05107
r37 124 149 13.2552
r38 119 122 8.05107
r39 119 144 13.2552
r40 114 117 8.05107
r41 114 139 13.2552
r42 109 112 8.05107
r43 109 134 13.2552
r44 104 106 95
r45 104 127 62.75
r46 98 100 95
r47 98 122 62.75
r48 92 94 95
r49 92 117 62.75
r50 86 88 95
r51 86 112 62.75
r52 82 83 16.3327
r53 80 82 8.63617
r54 79 82 5.15106
r55 77 154 0.0361833
r56 76 77 16.3327
r57 74 76 5.18936
r58 72 149 8
r59 71 72 8
r60 67 68 8
r61 64 67 0.0144444
r62 61 62 8
r63 59 71 0.0332691
r64 59 61 0.47164
r65 57 144 8
r66 56 57 8
r67 53 62 1.6042
r68 52 56 0.5057
r69 52 53 8
r70 49 139 8
r71 48 49 8
r72 45 53 4.5084
r73 44 48 0.5057
r74 44 45 8
r75 41 134 8
r76 40 41 8
r77 37 45 1.6055
r78 36 40 0.5057
r79 36 37 8
r80 33 37 25.22
r81 32 33 8
r82 30 64 0.0222572
r83 30 32 0.71786
r84 23 154 0.0501235
r85 20 23 0.0348774
r86 20 22 0.0348774
r87 20 68 8
r88 15 22 0.0380247
r89 13 15 0.042029
r90 13 14 0.1232
r91 12 14 0.0391994
r92 11 83 0.0533364
r93 11 12 0.0730435
.ends

.subckt PM_ROM_TEST6%NET135 94 95 99 106 111 114 116 120 122 126 128 132 134
c0 210 0 0.0826675f
c1 207 0 0.0826675f
c2 204 0 0.0827752f
c3 201 0 0.0826675f
c4 196 0 0.135326f
c5 189 0 0.0661015f
c6 184 0 0.14978f
c7 169 0 0.154665f
c8 167 0 0.0988911f
c9 165 0 0.125092f
c10 162 0 0.0988911f
c11 160 0 0.124452f
c12 157 0 0.0993906f
c13 155 0 0.127781f
c14 152 0 0.0994184f
c15 150 0 0.124943f
c16 143 0 0.0811983f
c17 140 0 0.249127f
c18 134 0 0.368409f
c19 128 0 0.375001f
c20 122 0 0.368249f
c21 116 0 0.373461f
c22 108 0 0.179011f
c23 104 0 0.169675f
c24 102 0 0.114561f
c25 98 0 0.163158f
c26 92 0 0.176894f
c27 91 0 0.0359753f
c28 88 0 0.177621f
c29 87 0 0.0483274f
c30 84 0 0.184214f
c31 83 0 0.198756f
c32 80 0 10.9799f
c33 76 0 0.184088f
c34 75 0 0.199538f
c35 68 0 12.0873f
c36 65 0 0.170318f
c37 63 0 20.9183f
c38 60 0 0.178045f
c39 58 0 3.07071f
c40 57 0 0.684339f
c41 22 0 0.058589f
c42 21 0 0.0951311f
c43 18 0 0.713713f
c44 6 0 0.101314f
r45 165 210 0.0503986
r46 164 167 8.05107
r47 164 165 13.2552
r48 160 207 0.0503986
r49 159 162 8.05107
r50 159 160 13.2552
r51 155 204 0.0503986
r52 154 157 8.05107
r53 154 155 13.2552
r54 150 201 0.0503986
r55 149 152 8.05107
r56 149 150 13.2552
r57 144 196 0.016383
r58 143 146 2.7766
r59 143 144 13.2552
r60 132 134 73.5
r61 132 167 64.5
r62 126 128 73.5
r63 126 162 64.5
r64 120 122 73.5
r65 120 157 64.5
r66 114 116 73.5
r67 114 152 64.5
r68 109 140 4.73303
r69 109 111 25.5
r70 108 146 4.73303
r71 108 111 63
r72 104 140 4.73303
r73 104 106 62
r74 102 189 0.0532817
r75 102 169 8
r76 101 102 16.3327
r77 99 101 5.28511
r78 97 98 16.3327
r79 95 97 8.54043
r80 94 97 5.24681
r81 91 92 8
r82 87 88 8
r83 83 84 8
r84 79 83 0.3705
r85 79 80 8
r86 75 76 8
r87 72 80 6.4649
r88 71 75 0.3705
r89 71 72 8
r90 68 72 6.916
r91 67 68 8
r92 65 87 0.0345691
r93 65 67 0.33384
r94 63 68 6.4623
r95 62 63 8
r96 60 91 0.0339191
r97 60 62 0.33514
r98 58 63 23.153
r99 57 58 8
r100 54 184 0.05395
r101 53 57 1.3169
r102 53 54 8
r103 45 98 0.072234
r104 42 210 0.08652
r105 42 84 8
r106 37 207 0.08652
r107 37 76 8
r108 32 204 0.08652
r109 32 88 8
r110 27 201 0.08652
r111 27 92 8
r112 23 189 0.14913
r113 22 45 0.0454107
r114 21 23 0.039111
r115 21 22 0.11413
r116 18 54 8
r117 16 196 0.0254415
r118 16 18 1.03628
r119 8 169 0.3913
r120 7 184 0.0255799
r121 6 8 0.0363174
r122 6 7 0.2795
.ends

.subckt PM_ROM_TEST6%NET137 92 93 97 104 109 112 114 118 120 124 126 130 132
c0 208 0 0.0770322f
c1 205 0 0.0773301f
c2 202 0 0.0773301f
c3 199 0 0.077355f
c4 194 0 0.13542f
c5 187 0 0.0451944f
c6 182 0 0.127564f
c7 167 0 0.707006f
c8 165 0 0.114608f
c9 163 0 0.135851f
c10 160 0 0.114608f
c11 158 0 0.13681f
c12 155 0 0.114608f
c13 153 0 0.136951f
c14 150 0 0.114608f
c15 148 0 0.136502f
c16 141 0 0.0811983f
c17 138 0 0.249261f
c18 132 0 0.420755f
c19 126 0 0.408803f
c20 120 0 0.416785f
c21 114 0 0.410378f
c22 106 0 0.179029f
c23 102 0 0.169697f
c24 100 0 0.0789442f
c25 96 0 0.158188f
c26 90 0 0.223647f
c27 89 0 0.178944f
c28 82 0 0.223647f
c29 81 0 0.171939f
c30 74 0 0.223714f
c31 73 0 0.178154f
c32 70 0 18.5157f
c33 66 0 0.223647f
c34 65 0 0.180038f
c35 62 0 22.6033f
c36 58 0 6.46331f
c37 57 0 0.731198f
c38 22 0 0.0584937f
c39 21 0 0.0824199f
c40 18 0 0.700581f
c41 6 0 0.111386f
r42 163 208 0.0503986
r43 162 165 8.05107
r44 162 163 13.2552
r45 158 205 0.0503986
r46 157 160 8.05107
r47 157 158 13.2552
r48 153 202 0.0503986
r49 152 155 8.05107
r50 152 153 13.2552
r51 148 199 0.0503986
r52 147 150 8.05107
r53 147 148 13.2552
r54 142 194 0.016383
r55 141 144 2.7766
r56 141 142 13.2552
r57 130 132 73.5
r58 130 165 64.5
r59 124 126 73.5
r60 124 160 64.5
r61 118 120 73.5
r62 118 155 64.5
r63 112 114 73.5
r64 112 150 64.5
r65 107 138 4.73303
r66 107 109 25.5
r67 106 144 4.73303
r68 106 109 63
r69 102 138 4.73303
r70 102 104 62
r71 100 187 0.0532817
r72 100 167 8
r73 99 100 16.3327
r74 97 99 5.28511
r75 95 96 16.3327
r76 93 95 8.54043
r77 92 95 5.24681
r78 89 90 8
r79 85 89 0.2353
r80 85 86 8
r81 81 82 8
r82 78 86 0.9438
r83 77 81 0.2353
r84 77 78 8
r85 73 74 8
r86 70 78 12.4371
r87 69 73 0.2353
r88 69 70 8
r89 65 66 8
r90 62 70 0.9438
r91 61 65 0.2353
r92 61 62 8
r93 58 62 24.7572
r94 57 58 8
r95 54 182 0.05395
r96 53 57 1.4521
r97 53 54 8
r98 45 96 0.072234
r99 42 208 0.08652
r100 42 90 8
r101 37 205 0.08652
r102 37 82 8
r103 32 202 0.08652
r104 32 74 8
r105 27 199 0.08652
r106 27 66 8
r107 23 187 0.14913
r108 22 45 0.0454107
r109 21 23 0.039111
r110 21 22 0.11413
r111 18 54 8
r112 16 194 0.0254415
r113 16 18 1.03628
r114 8 167 1.9279
r115 7 182 0.0255799
r116 6 8 0.0363174
r117 6 7 0.2795
.ends

.subckt PM_ROM_TEST6%NET139 92 93 97 104 109 112 114 118 120 124 126 130 132
c0 218 0 5.31974f
c1 217 0 5.25533f
c2 210 0 0.108255f
c3 206 0 0.102714f
c4 202 0 0.108441f
c5 198 0 0.102716f
c6 194 0 0.135314f
c7 187 0 0.0451944f
c8 182 0 0.127607f
c9 167 0 0.696737f
c10 165 0 0.0970063f
c11 160 0 0.0961222f
c12 155 0 0.0965646f
c13 150 0 0.0961222f
c14 141 0 0.081202f
c15 138 0 0.249069f
c16 132 0 0.381564f
c17 126 0 0.387318f
c18 120 0 0.394f
c19 114 0 0.382344f
c20 106 0 0.179028f
c21 102 0 0.164389f
c22 100 0 0.0789442f
c23 96 0 0.158188f
c24 90 0 0.182786f
c25 89 0 0.0726146f
c26 82 0 0.182786f
c27 81 0 0.0726146f
c28 78 0 5.34164f
c29 74 0 0.190537f
c30 73 0 0.152016f
c31 66 0 0.191951f
c32 65 0 0.140045f
c33 62 0 7.77861f
c34 58 0 6.2301f
c35 57 0 0.81357f
c36 40 0 0.0662437f
c37 35 0 0.0590032f
c38 30 0 0.0662437f
c39 25 0 0.0590032f
c40 22 0 0.0584878f
c41 21 0 0.0824199f
c42 18 0 0.700468f
c43 6 0 0.117315f
r44 217 218 9.25548
r45 163 210 0.016383
r46 162 165 8.05107
r47 162 163 13.2552
r48 158 206 0.016383
r49 157 160 8.05107
r50 157 158 13.2552
r51 153 202 0.016383
r52 152 155 8.05107
r53 152 153 13.2552
r54 148 198 0.016383
r55 147 150 8.05107
r56 147 148 13.2552
r57 142 194 0.016383
r58 141 144 2.7766
r59 141 142 13.2552
r60 130 132 73.5
r61 130 165 64.5
r62 124 126 73.5
r63 124 160 64.5
r64 118 120 73.5
r65 118 155 64.5
r66 112 114 73.5
r67 112 150 64.5
r68 107 138 4.73303
r69 107 109 25.5
r70 106 144 4.73303
r71 106 109 63
r72 102 138 4.73303
r73 102 104 62
r74 100 187 0.0532817
r75 100 167 8
r76 99 100 16.3327
r77 97 99 5.28511
r78 95 96 16.3327
r79 93 95 8.54043
r80 92 95 5.24681
r81 89 90 8
r82 85 89 0.1001
r83 85 86 8
r84 81 82 8
r85 78 218 9.25574
r86 77 81 0.1001
r87 77 78 8
r88 73 74 8
r89 70 86 0.9438
r90 69 73 0.0807258
r91 69 70 8
r92 65 66 8
r93 62 86 5.5211
r94 62 78 0.9438
r95 61 65 0.1001
r96 61 62 8
r97 58 217 9.25548
r98 57 58 8
r99 54 182 0.05395
r100 53 57 1.5873
r101 53 54 8
r102 45 96 0.072234
r103 42 74 8
r104 40 210 0.0254415
r105 40 42 0.08652
r106 37 90 8
r107 35 206 0.0254415
r108 35 37 0.08652
r109 32 66 8
r110 30 202 0.0254415
r111 30 32 0.08652
r112 27 82 8
r113 25 198 0.0254415
r114 25 27 0.08652
r115 23 187 0.14913
r116 22 45 0.0454107
r117 21 23 0.039111
r118 21 22 0.11413
r119 18 54 8
r120 16 194 0.0254415
r121 16 18 1.03628
r122 8 167 1.9279
r123 7 182 0.0255799
r124 6 8 0.0363174
r125 6 7 0.2795
.ends

.subckt PM_ROM_TEST6%NET0380 86 91 96 101 106 111 116 121 126 131 136 141 146
+ 151 156 161 166 171 176 181 186 191 196 201 206 211 216 221 226 231 236 241
+ 246 251 256 261 266 271 276 281 286 291 296 301 306 311 316 321 326 331 336
+ 341 346 351 356 361 366 371 376 381 386 391 396 401 406 411 416
c0 622 0 0.168672f
c1 553 0 9.23548f
c2 490 0 8.75651f
c3 423 0 8.84668f
c4 416 0 0.00172405f
c5 414 0 0.133703f
c6 409 0 0.133703f
c7 404 0 0.133703f
c8 399 0 0.133703f
c9 394 0 0.133703f
c10 389 0 0.133703f
c11 384 0 0.133703f
c12 379 0 0.135862f
c13 374 0 0.133703f
c14 369 0 0.133703f
c15 364 0 0.133703f
c16 359 0 0.133703f
c17 354 0 0.133703f
c18 349 0 0.133703f
c19 344 0 0.133703f
c20 339 0 0.135862f
c21 334 0 0.133703f
c22 329 0 0.133703f
c23 324 0 0.133703f
c24 319 0 0.133703f
c25 314 0 0.133703f
c26 309 0 0.133703f
c27 304 0 0.133703f
c28 299 0 0.135862f
c29 294 0 0.133703f
c30 289 0 0.133703f
c31 284 0 0.133703f
c32 279 0 0.133703f
c33 274 0 0.133703f
c34 269 0 0.133703f
c35 264 0 0.133703f
c36 259 0 0.135862f
c37 254 0 0.133703f
c38 249 0 0.133703f
c39 244 0 0.133703f
c40 239 0 0.133703f
c41 234 0 0.133703f
c42 229 0 0.133703f
c43 224 0 0.133703f
c44 219 0 0.135862f
c45 214 0 0.133703f
c46 209 0 0.133703f
c47 204 0 0.133703f
c48 199 0 0.133703f
c49 194 0 0.133703f
c50 189 0 0.133703f
c51 184 0 0.133703f
c52 179 0 0.135862f
c53 174 0 0.133703f
c54 169 0 0.133703f
c55 164 0 0.133703f
c56 159 0 0.133703f
c57 154 0 0.133703f
c58 149 0 0.133703f
c59 144 0 0.133703f
c60 139 0 0.135862f
c61 134 0 0.133703f
c62 129 0 0.133703f
c63 124 0 0.133703f
c64 119 0 0.133703f
c65 114 0 0.133723f
c66 109 0 0.133703f
c67 104 0 0.133703f
c68 99 0 0.134103f
c69 94 0 0.473742f
c70 84 0 0.0954589f
c71 80 0 0.0683965f
c72 77 0 0.065086f
c73 74 0 0.211456f
c74 73 0 0.0554115f
r75 610 613 0.7982
r76 607 610 0.7982
r77 604 607 0.7982
r78 601 604 0.7982
r79 598 601 0.7982
r80 595 598 0.7982
r81 592 595 0.7982
r82 589 592 0.9074
r83 586 589 0.7982
r84 583 586 0.7982
r85 580 583 0.7982
r86 577 580 0.7982
r87 574 577 0.7982
r88 571 574 0.7982
r89 568 571 0.7982
r90 565 568 0.9074
r91 562 565 0.7982
r92 559 562 0.7982
r93 556 559 0.7982
r94 553 556 0.7982
r95 550 553 0.7982
r96 547 550 0.7982
r97 544 547 0.7982
r98 541 544 0.9074
r99 538 541 0.7982
r100 535 538 0.7982
r101 532 535 0.7982
r102 529 532 0.7982
r103 526 529 0.7982
r104 523 526 0.7982
r105 520 523 0.7982
r106 517 520 0.9074
r107 514 517 0.7982
r108 511 514 0.7982
r109 508 511 0.7982
r110 505 508 0.7982
r111 502 505 0.7982
r112 499 502 0.7982
r113 496 499 0.7982
r114 493 496 0.9074
r115 490 493 0.7982
r116 487 490 0.7982
r117 484 487 0.7982
r118 481 484 0.7982
r119 478 481 0.7982
r120 475 478 0.7982
r121 472 475 0.7982
r122 469 472 0.9074
r123 466 469 0.7982
r124 463 466 0.7982
r125 460 463 0.7982
r126 457 460 0.7982
r127 454 457 0.7982
r128 451 454 0.7982
r129 448 451 0.7982
r130 445 448 0.9074
r131 442 445 0.7982
r132 439 442 0.7982
r133 436 439 0.7982
r134 433 436 0.7982
r135 430 433 0.7982
r136 427 430 0.7982
r137 423 427 0.7982
r138 421 613 1.0881
r139 418 419 16.3327
r140 416 418 4.88298
r141 414 613 8
r142 413 414 16.3327
r143 411 413 4.88298
r144 409 610 8
r145 408 409 16.3327
r146 406 408 4.88298
r147 404 607 8
r148 403 404 16.3327
r149 401 403 4.88298
r150 399 604 8
r151 398 399 16.3327
r152 396 398 4.88298
r153 394 601 8
r154 393 394 16.3327
r155 391 393 4.88298
r156 389 598 8
r157 388 389 16.3327
r158 386 388 4.88298
r159 384 595 8
r160 383 384 16.3327
r161 381 383 4.88298
r162 379 592 8
r163 378 379 16.3327
r164 376 378 4.88298
r165 374 589 8
r166 373 374 16.3327
r167 371 373 4.88298
r168 369 586 8
r169 368 369 16.3327
r170 366 368 4.88298
r171 364 583 8
r172 363 364 16.3327
r173 361 363 4.88298
r174 359 580 8
r175 358 359 16.3327
r176 356 358 4.88298
r177 354 577 8
r178 353 354 16.3327
r179 351 353 4.88298
r180 349 574 8
r181 348 349 16.3327
r182 346 348 4.88298
r183 344 571 8
r184 343 344 16.3327
r185 341 343 4.88298
r186 339 568 8
r187 338 339 16.3327
r188 336 338 4.88298
r189 334 565 8
r190 333 334 16.3327
r191 331 333 4.88298
r192 329 562 8
r193 328 329 16.3327
r194 326 328 4.88298
r195 324 559 8
r196 323 324 16.3327
r197 321 323 4.88298
r198 319 556 8
r199 318 319 16.3327
r200 316 318 4.88298
r201 314 553 8
r202 313 314 16.3327
r203 311 313 4.88298
r204 309 550 8
r205 308 309 16.3327
r206 306 308 4.88298
r207 304 547 8
r208 303 304 16.3327
r209 301 303 4.88298
r210 299 544 8
r211 298 299 16.3327
r212 296 298 4.88298
r213 294 541 8
r214 293 294 16.3327
r215 291 293 4.88298
r216 289 538 8
r217 288 289 16.3327
r218 286 288 4.88298
r219 284 535 8
r220 283 284 16.3327
r221 281 283 4.88298
r222 279 532 8
r223 278 279 16.3327
r224 276 278 4.88298
r225 274 529 8
r226 273 274 16.3327
r227 271 273 4.88298
r228 269 526 8
r229 268 269 16.3327
r230 266 268 4.88298
r231 264 523 8
r232 263 264 16.3327
r233 261 263 4.88298
r234 259 520 8
r235 258 259 16.3327
r236 256 258 4.88298
r237 254 517 8
r238 253 254 16.3327
r239 251 253 4.88298
r240 249 514 8
r241 248 249 16.3327
r242 246 248 4.88298
r243 244 511 8
r244 243 244 16.3327
r245 241 243 4.88298
r246 239 508 8
r247 238 239 16.3327
r248 236 238 4.88298
r249 234 505 8
r250 233 234 16.3327
r251 231 233 4.88298
r252 229 502 8
r253 228 229 16.3327
r254 226 228 4.88298
r255 224 499 8
r256 223 224 16.3327
r257 221 223 4.88298
r258 219 496 8
r259 218 219 16.3327
r260 216 218 4.88298
r261 214 493 8
r262 213 214 16.3327
r263 211 213 4.88298
r264 209 490 8
r265 208 209 16.3327
r266 206 208 4.88298
r267 204 487 8
r268 203 204 16.3327
r269 201 203 4.88298
r270 199 484 8
r271 198 199 16.3327
r272 196 198 4.88298
r273 194 481 8
r274 193 194 16.3327
r275 191 193 4.88298
r276 189 478 8
r277 188 189 16.3327
r278 186 188 4.88298
r279 184 475 8
r280 183 184 16.3327
r281 181 183 4.88298
r282 179 472 8
r283 178 179 16.3327
r284 176 178 4.88298
r285 174 469 8
r286 173 174 16.3327
r287 171 173 4.88298
r288 169 466 8
r289 168 169 16.3327
r290 166 168 4.88298
r291 164 463 8
r292 163 164 16.3327
r293 161 163 4.88298
r294 159 460 8
r295 158 159 16.3327
r296 156 158 4.88298
r297 154 457 8
r298 153 154 16.3327
r299 151 153 4.88298
r300 149 454 8
r301 148 149 16.3327
r302 146 148 4.88298
r303 144 451 8
r304 143 144 16.3327
r305 141 143 4.88298
r306 139 448 8
r307 138 139 16.3327
r308 136 138 4.88298
r309 134 445 8
r310 133 134 16.3327
r311 131 133 4.88298
r312 129 442 8
r313 128 129 16.3327
r314 126 128 4.88298
r315 124 439 8
r316 123 124 16.3327
r317 121 123 4.88298
r318 119 436 8
r319 118 119 16.3327
r320 116 118 4.88298
r321 114 433 8
r322 113 114 16.3327
r323 111 113 4.88298
r324 109 430 8
r325 108 109 16.3327
r326 106 108 4.88298
r327 104 427 8
r328 103 104 16.3327
r329 101 103 4.88298
r330 99 423 8
r331 98 99 16.3327
r332 96 98 4.88298
r333 94 419 0.251282
r334 93 94 16.3327
r335 91 93 4.88298
r336 88 622 16.3327
r337 86 88 4.88298
r338 84 94 8
r339 80 84 8
r340 80 81 8
r341 77 622 8
r342 77 421 0.0567954
r343 74 81 0.6188
r344 73 77 8
r345 73 74 8
.ends

.subckt PM_ROM_TEST6%NET474 90 95 100 105 110 115 120 125 130 135 140 145 150
+ 155 160 165 170 175 180 185 190 195 200 205 210 215 220 225 230 235 240 245
+ 250 255 260 265 270 275 280 285 290 295 300 305 310 315 320 325 330 335 340
+ 345 350 355 360 365 370 375 380 385 390 395 400 405 410 415 420
c0 626 0 0.189953f
c1 622 0 0.479751f
c2 559 0 10.2144f
c3 496 0 10.2848f
c4 432 0 10.154f
c5 430 0 0.385993f
c6 423 0 0.163312f
c7 418 0 0.163312f
c8 413 0 0.163312f
c9 408 0 0.163312f
c10 403 0 0.163312f
c11 398 0 0.163312f
c12 393 0 0.163312f
c13 388 0 0.163312f
c14 383 0 0.163312f
c15 378 0 0.163312f
c16 373 0 0.163312f
c17 368 0 0.163312f
c18 363 0 0.163312f
c19 358 0 0.163312f
c20 353 0 0.163312f
c21 348 0 0.163312f
c22 343 0 0.163312f
c23 338 0 0.163312f
c24 333 0 0.163312f
c25 328 0 0.163312f
c26 323 0 0.163312f
c27 318 0 0.163312f
c28 313 0 0.163312f
c29 308 0 0.163312f
c30 303 0 0.163312f
c31 298 0 0.163312f